/*---------------------------------------------------------------------------*\
| =========                 |                                                 |
| \\      /  F ield         | OpenFOAM: The Open Source CFD Toolbox           |
|  \\    /   O peration     | Version:  2.1.1                                 |
|   \\  /    A nd           | Web:      www.OpenFOAM.org                      |
|    \\/     M anipulation  |                                                 |
\*---------------------------------------------------------------------------*/
Build  : 2.1.1-221db2718bbb
Exec   : decomposePar -force
Date   : Aug 23 2017
Time   : 11:44:17
Host   : "thubee-workstation"
PID    : 24318
Case   : /home/thubee/OpenFOAM/thubee-2.1.1/run/simpleFoam/case01.01-4.2m-snap
nProcs : 1
sigFpe : Enabling floating point exception trapping (FOAM_SIGFPE).
fileModificationChecking : Monitoring run-time modified files using timeStampMaster
allowSystemOperations : Disallowing user-supplied system call operations

// * * * * * * * * * * * * * * * * * * * * * * * * * * * * * * * * * * * * * //
Create time

Create mesh

Calculating distribution of cells
Selecting decompositionMethod simple

Finished decomposition in 3.21 s

Calculating original mesh data

Distributing cells to processors

Distributing faces to processors

Distributing points to processors

Constructing processor meshes

Processor 0
    Number of cells = 590525
    Number of faces shared with processor 1 = 3680
    Number of faces shared with processor 2 = 2464
    Number of faces shared with processor 4 = 38108
    Number of faces shared with processor 5 = 1
    Number of processor patches = 4
    Number of processor faces = 44253
    Number of boundary faces = 43025

Processor 1
    Number of cells = 525818
    Number of faces shared with processor 0 = 3680
    Number of faces shared with processor 3 = 1868
    Number of faces shared with processor 5 = 39674
    Number of processor patches = 3
    Number of processor faces = 45222
    Number of boundary faces = 50139

Processor 2
    Number of cells = 459540
    Number of faces shared with processor 0 = 2464
    Number of faces shared with processor 3 = 1960
    Number of faces shared with processor 4 = 2
    Number of faces shared with processor 6 = 34496
    Number of processor patches = 4
    Number of processor faces = 38922
    Number of boundary faces = 61442

Processor 3
    Number of cells = 457759
    Number of faces shared with processor 1 = 1868
    Number of faces shared with processor 2 = 1960
    Number of faces shared with processor 7 = 36482
    Number of processor patches = 3
    Number of processor faces = 40310
    Number of boundary faces = 66280

Processor 4
    Number of cells = 442227
    Number of faces shared with processor 0 = 38108
    Number of faces shared with processor 2 = 2
    Number of faces shared with processor 5 = 3618
    Number of faces shared with processor 6 = 2803
    Number of processor patches = 4
    Number of processor faces = 44531
    Number of boundary faces = 7480

Processor 5
    Number of cells = 475072
    Number of faces shared with processor 0 = 1
    Number of faces shared with processor 1 = 39674
    Number of faces shared with processor 4 = 3618
    Number of faces shared with processor 7 = 2973
    Number of processor patches = 4
    Number of processor faces = 46266
    Number of boundary faces = 8585

Processor 6
    Number of cells = 541350
    Number of faces shared with processor 2 = 34496
    Number of faces shared with processor 4 = 2803
    Number of faces shared with processor 7 = 4475
    Number of processor patches = 3
    Number of processor faces = 41774
    Number of boundary faces = 28705

Processor 7
    Number of cells = 574992
    Number of faces shared with processor 3 = 36482
    Number of faces shared with processor 5 = 2973
    Number of faces shared with processor 6 = 4475
    Number of processor patches = 3
    Number of processor faces = 43930
    Number of boundary faces = 30635

Number of processor faces = 172604
Max number of cells = 590525 (16.1512% above average 508410)
Max number of processor patches = 4 (14.2857% above average 3.5)
Max number of faces between processors = 46266 (7.21884% above average 43151)

Time = 0

Processor 0: field transfer
Processor 1: field transfer
Processor 2: field transfer
Processor 3: field transfer
Processor 4: field transfer
Processor 5: field transfer
Processor 6: field transfer
Processor 7: field transfer

End.

/*---------------------------------------------------------------------------*\
| =========                 |                                                 |
| \\      /  F ield         | OpenFOAM: The Open Source CFD Toolbox           |
|  \\    /   O peration     | Version:  2.1.1                                 |
|   \\  /    A nd           | Web:      www.OpenFOAM.org                      |
|    \\/     M anipulation  |                                                 |
\*---------------------------------------------------------------------------*/
Build  : 2.1.1-221db2718bbb
Exec   : simpleFoam -parallel
Date   : Aug 23 2017
Time   : 11:45:16
Host   : "thubee-workstation"
PID    : 24329
Case   : /home/thubee/OpenFOAM/thubee-2.1.1/run/simpleFoam/case01.01-4.2m-snap
nProcs : 8
Slaves : 
7
(
"thubee-workstation.24330"
"thubee-workstation.24331"
"thubee-workstation.24332"
"thubee-workstation.24333"
"thubee-workstation.24334"
"thubee-workstation.24335"
"thubee-workstation.24336"
)

Pstream initialized with:
    floatTransfer     : 0
    nProcsSimpleSum   : 0
    commsType         : nonBlocking
sigFpe : Enabling floating point exception trapping (FOAM_SIGFPE).
fileModificationChecking : Monitoring run-time modified files using timeStampMaster
allowSystemOperations : Disallowing user-supplied system call operations

// * * * * * * * * * * * * * * * * * * * * * * * * * * * * * * * * * * * * * //
Create time

Create mesh for time = 0

Reading field p

Reading field U

Reading/calculating face flux field phi

Selecting incompressible transport model Newtonian
Selecting RAS turbulence model kEpsilon
kEpsilonCoeffs
{
    Cmu             0.09;
    C1              1.44;
    C2              1.92;
    sigmaEps        1.3;
}

No field sources present


SIMPLE: convergence criteria
    field p	 tolerance 0.0001
    field U	 tolerance 1e-05
    field "(k|epsilon)"	 tolerance 1e-05


Starting time loop

Time = 1

DILUPBiCG:  Solving for Ux, Initial residual = 1, Final residual = 0.0307005, No Iterations 2
DILUPBiCG:  Solving for Uy, Initial residual = 1, Final residual = 0.0567469, No Iterations 2
DILUPBiCG:  Solving for Uz, Initial residual = 1, Final residual = 0.0289059, No Iterations 2
GAMG:  Solving for p, Initial residual = 1, Final residual = 0.0955016, No Iterations 7
time step continuity errors : sum local = 0.000487695, global = 0.000128947, cumulative = 0.000128947
DILUPBiCG:  Solving for epsilon, Initial residual = 0.991548, Final residual = 0.00137574, No Iterations 1
DILUPBiCG:  Solving for k, Initial residual = 1, Final residual = 0.0135987, No Iterations 1
ExecutionTime = 10.56 s  ClockTime = 11 s

Time = 2

DILUPBiCG:  Solving for Ux, Initial residual = 0.123667, Final residual = 0.0122645, No Iterations 1
DILUPBiCG:  Solving for Uy, Initial residual = 0.0812572, Final residual = 0.00757408, No Iterations 1
DILUPBiCG:  Solving for Uz, Initial residual = 0.25435, Final residual = 0.00611964, No Iterations 2
GAMG:  Solving for p, Initial residual = 0.439866, Final residual = 0.030008, No Iterations 10
time step continuity errors : sum local = 0.000324348, global = -0.000103131, cumulative = 2.58163e-05
DILUPBiCG:  Solving for epsilon, Initial residual = 0.979414, Final residual = 0.0041161, No Iterations 1
DILUPBiCG:  Solving for k, Initial residual = 0.608183, Final residual = 0.0177823, No Iterations 1
ExecutionTime = 19.05 s  ClockTime = 20 s

Time = 3

DILUPBiCG:  Solving for Ux, Initial residual = 0.353438, Final residual = 0.00793475, No Iterations 2
DILUPBiCG:  Solving for Uy, Initial residual = 0.612176, Final residual = 0.0142826, No Iterations 2
DILUPBiCG:  Solving for Uz, Initial residual = 0.375243, Final residual = 0.0101669, No Iterations 2
GAMG:  Solving for p, Initial residual = 0.03658, Final residual = 0.00314347, No Iterations 3
time step continuity errors : sum local = 0.000824613, global = 0.000359568, cumulative = 0.000385385
DILUPBiCG:  Solving for epsilon, Initial residual = 0.675158, Final residual = 0.00392721, No Iterations 1
DILUPBiCG:  Solving for k, Initial residual = 0.242167, Final residual = 0.00814852, No Iterations 1
ExecutionTime = 26.23 s  ClockTime = 27 s

Time = 4

DILUPBiCG:  Solving for Ux, Initial residual = 0.25479, Final residual = 0.00833249, No Iterations 2
DILUPBiCG:  Solving for Uy, Initial residual = 0.30235, Final residual = 0.00799885, No Iterations 2
DILUPBiCG:  Solving for Uz, Initial residual = 0.242132, Final residual = 0.00852561, No Iterations 2
GAMG:  Solving for p, Initial residual = 0.0474683, Final residual = 0.00232632, No Iterations 6
time step continuity errors : sum local = 0.000476832, global = 0.000179047, cumulative = 0.000564432
DILUPBiCG:  Solving for epsilon, Initial residual = 0.447418, Final residual = 0.00482433, No Iterations 1
DILUPBiCG:  Solving for k, Initial residual = 0.126493, Final residual = 0.0107621, No Iterations 1
ExecutionTime = 34.03 s  ClockTime = 35 s

Time = 5

DILUPBiCG:  Solving for Ux, Initial residual = 0.134796, Final residual = 0.00421542, No Iterations 2
DILUPBiCG:  Solving for Uy, Initial residual = 0.102427, Final residual = 0.00212976, No Iterations 2
DILUPBiCG:  Solving for Uz, Initial residual = 0.182018, Final residual = 0.00902992, No Iterations 2
GAMG:  Solving for p, Initial residual = 0.148766, Final residual = 0.0105014, No Iterations 6
time step continuity errors : sum local = 0.000586025, global = 0.000221526, cumulative = 0.000785958
DILUPBiCG:  Solving for epsilon, Initial residual = 0.263528, Final residual = 0.00552984, No Iterations 1
DILUPBiCG:  Solving for k, Initial residual = 0.0733457, Final residual = 0.00663646, No Iterations 1
ExecutionTime = 41.91 s  ClockTime = 42 s

Time = 6

DILUPBiCG:  Solving for Ux, Initial residual = 0.143278, Final residual = 0.00375989, No Iterations 2
DILUPBiCG:  Solving for Uy, Initial residual = 0.442892, Final residual = 0.0112068, No Iterations 2
DILUPBiCG:  Solving for Uz, Initial residual = 0.201158, Final residual = 0.00736575, No Iterations 2
GAMG:  Solving for p, Initial residual = 0.0761641, Final residual = 0.00589107, No Iterations 3
time step continuity errors : sum local = 0.00102314, global = -0.000437246, cumulative = 0.000348713
DILUPBiCG:  Solving for epsilon, Initial residual = 0.142029, Final residual = 0.0054328, No Iterations 1
DILUPBiCG:  Solving for k, Initial residual = 0.0540528, Final residual = 0.00535505, No Iterations 1
ExecutionTime = 49.09 s  ClockTime = 50 s

Time = 7

DILUPBiCG:  Solving for Ux, Initial residual = 0.303035, Final residual = 0.0162481, No Iterations 2
DILUPBiCG:  Solving for Uy, Initial residual = 0.390908, Final residual = 0.0108941, No Iterations 2
DILUPBiCG:  Solving for Uz, Initial residual = 0.313227, Final residual = 0.0171605, No Iterations 2
GAMG:  Solving for p, Initial residual = 0.0915162, Final residual = 0.00535023, No Iterations 5
time step continuity errors : sum local = 0.000784027, global = -0.00028822, cumulative = 6.04929e-05
DILUPBiCG:  Solving for epsilon, Initial residual = 0.0737112, Final residual = 0.00472024, No Iterations 1
DILUPBiCG:  Solving for k, Initial residual = 0.0476125, Final residual = 0.000635581, No Iterations 2
ExecutionTime = 56.9 s  ClockTime = 57 s

Time = 8

DILUPBiCG:  Solving for Ux, Initial residual = 0.243844, Final residual = 0.0129563, No Iterations 2
DILUPBiCG:  Solving for Uy, Initial residual = 0.108577, Final residual = 0.00259371, No Iterations 2
DILUPBiCG:  Solving for Uz, Initial residual = 0.27737, Final residual = 0.0187841, No Iterations 2
GAMG:  Solving for p, Initial residual = 0.181272, Final residual = 0.00994461, No Iterations 4
time step continuity errors : sum local = 0.000506011, global = -0.000186189, cumulative = -0.000125696
DILUPBiCG:  Solving for epsilon, Initial residual = 0.0430105, Final residual = 0.00371073, No Iterations 1
DILUPBiCG:  Solving for k, Initial residual = 0.0423212, Final residual = 0.000595165, No Iterations 2
ExecutionTime = 64.4 s  ClockTime = 65 s

Time = 9

DILUPBiCG:  Solving for Ux, Initial residual = 0.190089, Final residual = 0.00131203, No Iterations 3
DILUPBiCG:  Solving for Uy, Initial residual = 0.229552, Final residual = 0.00672369, No Iterations 2
DILUPBiCG:  Solving for Uz, Initial residual = 0.267339, Final residual = 0.0142924, No Iterations 2
GAMG:  Solving for p, Initial residual = 0.085341, Final residual = 0.00478537, No Iterations 3
time step continuity errors : sum local = 0.000652095, global = 0.000250201, cumulative = 0.000124505
DILUPBiCG:  Solving for epsilon, Initial residual = 0.0320047, Final residual = 0.000729058, No Iterations 2
DILUPBiCG:  Solving for k, Initial residual = 0.0369705, Final residual = 0.000648431, No Iterations 2
ExecutionTime = 72.07 s  ClockTime = 73 s

Time = 10

DILUPBiCG:  Solving for Ux, Initial residual = 0.196163, Final residual = 0.0084374, No Iterations 2
DILUPBiCG:  Solving for Uy, Initial residual = 0.142697, Final residual = 0.00440221, No Iterations 2
DILUPBiCG:  Solving for Uz, Initial residual = 0.281768, Final residual = 0.0142071, No Iterations 2
GAMG:  Solving for p, Initial residual = 0.109394, Final residual = 0.0103802, No Iterations 3
time step continuity errors : sum local = 0.000956245, global = 0.000435711, cumulative = 0.000560216
DILUPBiCG:  Solving for epsilon, Initial residual = 0.0261918, Final residual = 0.00153158, No Iterations 2
DILUPBiCG:  Solving for k, Initial residual = 0.0345468, Final residual = 0.000640902, No Iterations 2
ExecutionTime = 79.6 s  ClockTime = 80 s

Time = 11

DILUPBiCG:  Solving for Ux, Initial residual = 0.0995818, Final residual = 0.000663848, No Iterations 3
DILUPBiCG:  Solving for Uy, Initial residual = 0.0559168, Final residual = 0.00114302, No Iterations 2
DILUPBiCG:  Solving for Uz, Initial residual = 0.153216, Final residual = 0.00891696, No Iterations 2
GAMG:  Solving for p, Initial residual = 0.258314, Final residual = 0.0217225, No Iterations 3
time step continuity errors : sum local = 0.000651924, global = -0.000188316, cumulative = 0.0003719
DILUPBiCG:  Solving for epsilon, Initial residual = 0.0231228, Final residual = 0.000141036, No Iterations 3
DILUPBiCG:  Solving for k, Initial residual = 0.0318371, Final residual = 0.000509352, No Iterations 2
ExecutionTime = 87.5 s  ClockTime = 88 s

Time = 12

DILUPBiCG:  Solving for Ux, Initial residual = 0.112507, Final residual = 0.0101317, No Iterations 2
DILUPBiCG:  Solving for Uy, Initial residual = 0.206438, Final residual = 0.00530546, No Iterations 2
DILUPBiCG:  Solving for Uz, Initial residual = 0.150433, Final residual = 0.00635244, No Iterations 2
GAMG:  Solving for p, Initial residual = 0.0903515, Final residual = 0.00381236, No Iterations 3
time step continuity errors : sum local = 0.000389749, global = -0.000144391, cumulative = 0.00022751
DILUPBiCG:  Solving for epsilon, Initial residual = 0.0230584, Final residual = 0.000873006, No Iterations 2
DILUPBiCG:  Solving for k, Initial residual = 0.0297261, Final residual = 0.000483338, No Iterations 2
ExecutionTime = 94.93 s  ClockTime = 95 s

Time = 13

DILUPBiCG:  Solving for Ux, Initial residual = 0.232904, Final residual = 0.0100928, No Iterations 2
DILUPBiCG:  Solving for Uy, Initial residual = 0.137829, Final residual = 0.00371627, No Iterations 2
DILUPBiCG:  Solving for Uz, Initial residual = 0.254252, Final residual = 0.014799, No Iterations 2
GAMG:  Solving for p, Initial residual = 0.127194, Final residual = 0.00851077, No Iterations 3
time step continuity errors : sum local = 0.00061556, global = -0.000381759, cumulative = -0.00015425
DILUPBiCG:  Solving for epsilon, Initial residual = 0.0232564, Final residual = 0.000588773, No Iterations 2
DILUPBiCG:  Solving for k, Initial residual = 0.0279267, Final residual = 0.000486031, No Iterations 2
ExecutionTime = 102.46 s  ClockTime = 103 s

Time = 14

DILUPBiCG:  Solving for Ux, Initial residual = 0.148321, Final residual = 0.0134698, No Iterations 2
DILUPBiCG:  Solving for Uy, Initial residual = 0.0464205, Final residual = 0.00129042, No Iterations 2
DILUPBiCG:  Solving for Uz, Initial residual = 0.186936, Final residual = 0.00181196, No Iterations 3
GAMG:  Solving for p, Initial residual = 0.298214, Final residual = 0.0180616, No Iterations 4
time step continuity errors : sum local = 0.000441688, global = -0.000158228, cumulative = -0.000312477
DILUPBiCG:  Solving for epsilon, Initial residual = 0.0202367, Final residual = 0.000499506, No Iterations 2
DILUPBiCG:  Solving for k, Initial residual = 0.0251643, Final residual = 0.000429698, No Iterations 2
ExecutionTime = 110.27 s  ClockTime = 111 s

Time = 15

DILUPBiCG:  Solving for Ux, Initial residual = 0.121561, Final residual = 0.00516704, No Iterations 2
DILUPBiCG:  Solving for Uy, Initial residual = 0.10864, Final residual = 0.00316249, No Iterations 2
DILUPBiCG:  Solving for Uz, Initial residual = 0.20345, Final residual = 0.0072628, No Iterations 2
GAMG:  Solving for p, Initial residual = 0.112635, Final residual = 0.00547208, No Iterations 3
time step continuity errors : sum local = 0.000354503, global = 0.000122433, cumulative = -0.000190044
DILUPBiCG:  Solving for epsilon, Initial residual = 0.0179402, Final residual = 0.000453015, No Iterations 2
DILUPBiCG:  Solving for k, Initial residual = 0.0231308, Final residual = 0.000427094, No Iterations 2
ExecutionTime = 117.77 s  ClockTime = 118 s

Time = 16

DILUPBiCG:  Solving for Ux, Initial residual = 0.144659, Final residual = 0.00592328, No Iterations 2
DILUPBiCG:  Solving for Uy, Initial residual = 0.0780629, Final residual = 0.00225077, No Iterations 2
DILUPBiCG:  Solving for Uz, Initial residual = 0.228167, Final residual = 0.0103693, No Iterations 2
GAMG:  Solving for p, Initial residual = 0.135248, Final residual = 0.00954959, No Iterations 3
time step continuity errors : sum local = 0.000489903, global = 0.00020579, cumulative = 1.57463e-05
DILUPBiCG:  Solving for epsilon, Initial residual = 0.0165193, Final residual = 0.000503224, No Iterations 2
DILUPBiCG:  Solving for k, Initial residual = 0.0220796, Final residual = 0.000414939, No Iterations 2
ExecutionTime = 125.19 s  ClockTime = 126 s

Time = 17

DILUPBiCG:  Solving for Ux, Initial residual = 0.0728256, Final residual = 0.000565307, No Iterations 3
DILUPBiCG:  Solving for Uy, Initial residual = 0.02744, Final residual = 0.000700708, No Iterations 2
DILUPBiCG:  Solving for Uz, Initial residual = 0.119064, Final residual = 0.00877216, No Iterations 2
GAMG:  Solving for p, Initial residual = 0.46277, Final residual = 0.0341958, No Iterations 3
time step continuity errors : sum local = 0.000414503, global = -0.000134798, cumulative = -0.000119052
DILUPBiCG:  Solving for epsilon, Initial residual = 0.0151947, Final residual = 0.000324183, No Iterations 2
DILUPBiCG:  Solving for k, Initial residual = 0.0209442, Final residual = 0.000347348, No Iterations 2
ExecutionTime = 132.85 s  ClockTime = 133 s

Time = 18

DILUPBiCG:  Solving for Ux, Initial residual = 0.0760493, Final residual = 0.00389867, No Iterations 2
DILUPBiCG:  Solving for Uy, Initial residual = 0.0822576, Final residual = 0.0019709, No Iterations 2
DILUPBiCG:  Solving for Uz, Initial residual = 0.113083, Final residual = 0.00480966, No Iterations 2
GAMG:  Solving for p, Initial residual = 0.119373, Final residual = 0.00452711, No Iterations 3
time step continuity errors : sum local = 0.000221096, global = -6.95069e-05, cumulative = -0.000188559
DILUPBiCG:  Solving for epsilon, Initial residual = 0.0152589, Final residual = 0.000310624, No Iterations 2
DILUPBiCG:  Solving for k, Initial residual = 0.0199566, Final residual = 0.000329919, No Iterations 2
ExecutionTime = 140.29 s  ClockTime = 141 s

Time = 19

DILUPBiCG:  Solving for Ux, Initial residual = 0.138171, Final residual = 0.0056673, No Iterations 2
DILUPBiCG:  Solving for Uy, Initial residual = 0.0623575, Final residual = 0.00152292, No Iterations 2
DILUPBiCG:  Solving for Uz, Initial residual = 0.169306, Final residual = 0.00977676, No Iterations 2
GAMG:  Solving for p, Initial residual = 0.145224, Final residual = 0.00783666, No Iterations 3
time step continuity errors : sum local = 0.000316607, global = -0.000155431, cumulative = -0.00034399
DILUPBiCG:  Solving for epsilon, Initial residual = 0.0163523, Final residual = 0.000336587, No Iterations 2
DILUPBiCG:  Solving for k, Initial residual = 0.0191498, Final residual = 0.000335515, No Iterations 2
ExecutionTime = 147.8 s  ClockTime = 148 s

Time = 20

DILUPBiCG:  Solving for Ux, Initial residual = 0.0907738, Final residual = 0.00667997, No Iterations 2
DILUPBiCG:  Solving for Uy, Initial residual = 0.0212321, Final residual = 0.000569131, No Iterations 2
DILUPBiCG:  Solving for Uz, Initial residual = 0.122849, Final residual = 0.00121935, No Iterations 3
GAMG:  Solving for p, Initial residual = 0.496148, Final residual = 0.0380667, No Iterations 3
time step continuity errors : sum local = 0.000366281, global = 0.000142674, cumulative = -0.000201316
DILUPBiCG:  Solving for epsilon, Initial residual = 0.0148129, Final residual = 0.000309956, No Iterations 2
DILUPBiCG:  Solving for k, Initial residual = 0.0180275, Final residual = 0.000325087, No Iterations 2
ExecutionTime = 155.42 s  ClockTime = 156 s

Time = 21

DILUPBiCG:  Solving for Ux, Initial residual = 0.0687309, Final residual = 0.00223542, No Iterations 2
DILUPBiCG:  Solving for Uy, Initial residual = 0.0506245, Final residual = 0.00143408, No Iterations 2
DILUPBiCG:  Solving for Uz, Initial residual = 0.127377, Final residual = 0.00365712, No Iterations 2
GAMG:  Solving for p, Initial residual = 0.136405, Final residual = 0.0124631, No Iterations 2
time step continuity errors : sum local = 0.000411302, global = -0.000109697, cumulative = -0.000311013
DILUPBiCG:  Solving for epsilon, Initial residual = 0.013161, Final residual = 0.000268084, No Iterations 2
DILUPBiCG:  Solving for k, Initial residual = 0.0172418, Final residual = 0.000332084, No Iterations 2
ExecutionTime = 162.71 s  ClockTime = 163 s

Time = 22

DILUPBiCG:  Solving for Ux, Initial residual = 0.0837249, Final residual = 0.00320951, No Iterations 2
DILUPBiCG:  Solving for Uy, Initial residual = 0.0404601, Final residual = 0.00113865, No Iterations 2
DILUPBiCG:  Solving for Uz, Initial residual = 0.141794, Final residual = 0.00565362, No Iterations 2
GAMG:  Solving for p, Initial residual = 0.147987, Final residual = 0.00742867, No Iterations 3
time step continuity errors : sum local = 0.000223335, global = 9.96722e-05, cumulative = -0.000211341
DILUPBiCG:  Solving for epsilon, Initial residual = 0.0125609, Final residual = 0.000880738, No Iterations 2
DILUPBiCG:  Solving for k, Initial residual = 0.0167564, Final residual = 0.00033834, No Iterations 2
ExecutionTime = 170.11 s  ClockTime = 171 s

Time = 23

DILUPBiCG:  Solving for Ux, Initial residual = 0.0457023, Final residual = 0.000333042, No Iterations 3
DILUPBiCG:  Solving for Uy, Initial residual = 0.0152358, Final residual = 0.000350168, No Iterations 2
DILUPBiCG:  Solving for Uz, Initial residual = 0.0799228, Final residual = 0.00773521, No Iterations 2
GAMG:  Solving for p, Initial residual = 0.607304, Final residual = 0.0316156, No Iterations 3
time step continuity errors : sum local = 0.000189438, global = 8.14628e-05, cumulative = -0.000129878
DILUPBiCG:  Solving for epsilon, Initial residual = 0.0120983, Final residual = 0.00028356, No Iterations 2
DILUPBiCG:  Solving for k, Initial residual = 0.0162444, Final residual = 0.000330082, No Iterations 2
ExecutionTime = 177.79 s  ClockTime = 178 s

Time = 24

DILUPBiCG:  Solving for Ux, Initial residual = 0.0512716, Final residual = 0.000738657, No Iterations 3
DILUPBiCG:  Solving for Uy, Initial residual = 0.0341405, Final residual = 0.000767314, No Iterations 2
DILUPBiCG:  Solving for Uz, Initial residual = 0.0804721, Final residual = 0.00367875, No Iterations 2
GAMG:  Solving for p, Initial residual = 0.152133, Final residual = 0.00624769, No Iterations 3
time step continuity errors : sum local = 0.000147335, global = -4.33008e-05, cumulative = -0.000173179
DILUPBiCG:  Solving for epsilon, Initial residual = 0.0121033, Final residual = 0.000249394, No Iterations 2
DILUPBiCG:  Solving for k, Initial residual = 0.0157417, Final residual = 0.000348344, No Iterations 2
ExecutionTime = 185.44 s  ClockTime = 186 s

Time = 25

DILUPBiCG:  Solving for Ux, Initial residual = 0.0730487, Final residual = 0.00371099, No Iterations 2
DILUPBiCG:  Solving for Uy, Initial residual = 0.0281537, Final residual = 0.000648657, No Iterations 2
DILUPBiCG:  Solving for Uz, Initial residual = 0.0977623, Final residual = 0.00530988, No Iterations 2
GAMG:  Solving for p, Initial residual = 0.158366, Final residual = 0.00828274, No Iterations 3
time step continuity errors : sum local = 0.000184955, global = -7.52467e-05, cumulative = -0.000248426
DILUPBiCG:  Solving for epsilon, Initial residual = 0.0128775, Final residual = 0.000279603, No Iterations 2
DILUPBiCG:  Solving for k, Initial residual = 0.0153379, Final residual = 0.000405434, No Iterations 2
ExecutionTime = 192.99 s  ClockTime = 193 s

Time = 26

DILUPBiCG:  Solving for Ux, Initial residual = 0.0548086, Final residual = 0.00379414, No Iterations 2
DILUPBiCG:  Solving for Uy, Initial residual = 0.0114166, Final residual = 0.000293369, No Iterations 2
DILUPBiCG:  Solving for Uz, Initial residual = 0.0787813, Final residual = 0.000543202, No Iterations 3
GAMG:  Solving for p, Initial residual = 0.487289, Final residual = 0.0464781, No Iterations 2
time step continuity errors : sum local = 0.000284508, global = 5.359e-06, cumulative = -0.000243067
DILUPBiCG:  Solving for epsilon, Initial residual = 0.012178, Final residual = 0.0002794, No Iterations 2
DILUPBiCG:  Solving for k, Initial residual = 0.0148401, Final residual = 0.000510714, No Iterations 2
ExecutionTime = 200.53 s  ClockTime = 201 s

Time = 27

DILUPBiCG:  Solving for Ux, Initial residual = 0.0375868, Final residual = 0.0012684, No Iterations 2
DILUPBiCG:  Solving for Uy, Initial residual = 0.0210743, Final residual = 0.000797054, No Iterations 2
DILUPBiCG:  Solving for Uz, Initial residual = 0.0723997, Final residual = 0.00206777, No Iterations 2
GAMG:  Solving for p, Initial residual = 0.164649, Final residual = 0.0153743, No Iterations 2
time step continuity errors : sum local = 0.000263948, global = -6.25809e-05, cumulative = -0.000305647
DILUPBiCG:  Solving for epsilon, Initial residual = 0.011097, Final residual = 0.000262895, No Iterations 2
DILUPBiCG:  Solving for k, Initial residual = 0.0144727, Final residual = 0.000796381, No Iterations 2
ExecutionTime = 207.73 s  ClockTime = 208 s

Time = 28

DILUPBiCG:  Solving for Ux, Initial residual = 0.0407078, Final residual = 0.00152499, No Iterations 2
DILUPBiCG:  Solving for Uy, Initial residual = 0.0193408, Final residual = 0.000702702, No Iterations 2
DILUPBiCG:  Solving for Uz, Initial residual = 0.0764324, Final residual = 0.00271742, No Iterations 2
GAMG:  Solving for p, Initial residual = 0.156708, Final residual = 0.00765885, No Iterations 3
time step continuity errors : sum local = 0.000132013, global = 5.31757e-05, cumulative = -0.000252472
DILUPBiCG:  Solving for epsilon, Initial residual = 0.0107076, Final residual = 0.000255281, No Iterations 2
DILUPBiCG:  Solving for k, Initial residual = 0.0142467, Final residual = 3.60913e-05, No Iterations 3
ExecutionTime = 215.46 s  ClockTime = 216 s

Time = 29

DILUPBiCG:  Solving for Ux, Initial residual = 0.0346597, Final residual = 0.00312536, No Iterations 2
DILUPBiCG:  Solving for Uy, Initial residual = 0.0103535, Final residual = 0.000640892, No Iterations 2
DILUPBiCG:  Solving for Uz, Initial residual = 0.0602116, Final residual = 0.00041622, No Iterations 3
GAMG:  Solving for p, Initial residual = 0.275932, Final residual = 0.0162937, No Iterations 3
time step continuity errors : sum local = 0.000139113, global = 5.4201e-05, cumulative = -0.000198271
DILUPBiCG:  Solving for epsilon, Initial residual = 0.0105402, Final residual = 0.000241034, No Iterations 2
DILUPBiCG:  Solving for k, Initial residual = 0.0139021, Final residual = 0.00126545, No Iterations 2
ExecutionTime = 223.04 s  ClockTime = 224 s

Time = 30

DILUPBiCG:  Solving for Ux, Initial residual = 0.0306214, Final residual = 0.00251426, No Iterations 2
DILUPBiCG:  Solving for Uy, Initial residual = 0.0110571, Final residual = 0.000251971, No Iterations 2
DILUPBiCG:  Solving for Uz, Initial residual = 0.0510984, Final residual = 0.00510148, No Iterations 2
GAMG:  Solving for p, Initial residual = 0.229122, Final residual = 0.0204354, No Iterations 2
time step continuity errors : sum local = 0.000198642, global = 7.13894e-05, cumulative = -0.000126881
DILUPBiCG:  Solving for epsilon, Initial residual = 0.0105658, Final residual = 0.000232864, No Iterations 2
DILUPBiCG:  Solving for k, Initial residual = 0.0137995, Final residual = 4.1454e-05, No Iterations 3
ExecutionTime = 230.53 s  ClockTime = 231 s

Time = 31

DILUPBiCG:  Solving for Ux, Initial residual = 0.0388045, Final residual = 0.000763237, No Iterations 2
DILUPBiCG:  Solving for Uy, Initial residual = 0.0114548, Final residual = 0.000323447, No Iterations 2
DILUPBiCG:  Solving for Uz, Initial residual = 0.0555129, Final residual = 0.00314472, No Iterations 2
GAMG:  Solving for p, Initial residual = 0.200612, Final residual = 0.0099062, No Iterations 3
time step continuity errors : sum local = 0.000106362, global = -2.92517e-05, cumulative = -0.000156133
DILUPBiCG:  Solving for epsilon, Initial residual = 0.0111018, Final residual = 0.000280265, No Iterations 2
DILUPBiCG:  Solving for k, Initial residual = 0.0134936, Final residual = 4.5301e-05, No Iterations 3
ExecutionTime = 238.13 s  ClockTime = 239 s

Time = 32

DILUPBiCG:  Solving for Ux, Initial residual = 0.0410842, Final residual = 0.00140718, No Iterations 2
DILUPBiCG:  Solving for Uy, Initial residual = 0.00920065, Final residual = 5.8222e-05, No Iterations 3
DILUPBiCG:  Solving for Uz, Initial residual = 0.0564868, Final residual = 0.00443472, No Iterations 2
GAMG:  Solving for p, Initial residual = 0.229061, Final residual = 0.0147054, No Iterations 3
time step continuity errors : sum local = 0.00012601, global = -4.83887e-05, cumulative = -0.000204522
DILUPBiCG:  Solving for epsilon, Initial residual = 0.0114744, Final residual = 0.000349755, No Iterations 2
DILUPBiCG:  Solving for k, Initial residual = 0.01336, Final residual = 4.86164e-05, No Iterations 3
ExecutionTime = 246.02 s  ClockTime = 247 s

Time = 33

DILUPBiCG:  Solving for Ux, Initial residual = 0.0302013, Final residual = 0.00144272, No Iterations 2
DILUPBiCG:  Solving for Uy, Initial residual = 0.00662982, Final residual = 0.000180207, No Iterations 2
DILUPBiCG:  Solving for Uz, Initial residual = 0.0454877, Final residual = 0.00231539, No Iterations 2
GAMG:  Solving for p, Initial residual = 0.373034, Final residual = 0.0187616, No Iterations 3
time step continuity errors : sum local = 9.23706e-05, global = -3.81207e-05, cumulative = -0.000242642
DILUPBiCG:  Solving for epsilon, Initial residual = 0.0113392, Final residual = 0.000281366, No Iterations 2
DILUPBiCG:  Solving for k, Initial residual = 0.0132496, Final residual = 5.18388e-05, No Iterations 3
ExecutionTime = 253.6 s  ClockTime = 254 s

Time = 34

DILUPBiCG:  Solving for Ux, Initial residual = 0.0244456, Final residual = 0.000429136, No Iterations 3
DILUPBiCG:  Solving for Uy, Initial residual = 0.00886919, Final residual = 0.000834785, No Iterations 2
DILUPBiCG:  Solving for Uz, Initial residual = 0.0435731, Final residual = 0.00334537, No Iterations 2
GAMG:  Solving for p, Initial residual = 0.181912, Final residual = 0.0163634, No Iterations 2
time step continuity errors : sum local = 0.000154192, global = -3.89815e-05, cumulative = -0.000281624
DILUPBiCG:  Solving for epsilon, Initial residual = 0.0112798, Final residual = 0.00050516, No Iterations 2
DILUPBiCG:  Solving for k, Initial residual = 0.0131855, Final residual = 5.53249e-05, No Iterations 3
ExecutionTime = 261.26 s  ClockTime = 262 s

Time = 35

DILUPBiCG:  Solving for Ux, Initial residual = 0.0235391, Final residual = 0.000177313, No Iterations 3
DILUPBiCG:  Solving for Uy, Initial residual = 0.00817046, Final residual = 0.000376645, No Iterations 2
DILUPBiCG:  Solving for Uz, Initial residual = 0.0440715, Final residual = 0.000431626, No Iterations 3
GAMG:  Solving for p, Initial residual = 0.183795, Final residual = 0.0115116, No Iterations 3
time step continuity errors : sum local = 0.00010112, global = 3.16752e-05, cumulative = -0.000249949
DILUPBiCG:  Solving for epsilon, Initial residual = 0.0117433, Final residual = 0.000696478, No Iterations 2
DILUPBiCG:  Solving for k, Initial residual = 0.0131615, Final residual = 5.79216e-05, No Iterations 3
ExecutionTime = 269.18 s  ClockTime = 270 s

Time = 36

DILUPBiCG:  Solving for Ux, Initial residual = 0.0210999, Final residual = 0.000724212, No Iterations 2
DILUPBiCG:  Solving for Uy, Initial residual = 0.00588545, Final residual = 0.000231606, No Iterations 2
DILUPBiCG:  Solving for Uz, Initial residual = 0.039239, Final residual = 0.00176875, No Iterations 2
GAMG:  Solving for p, Initial residual = 0.246546, Final residual = 0.017976, No Iterations 3
time step continuity errors : sum local = 0.000106809, global = 3.91979e-05, cumulative = -0.000210751
DILUPBiCG:  Solving for epsilon, Initial residual = 0.0125377, Final residual = 0.00107823, No Iterations 2
DILUPBiCG:  Solving for k, Initial residual = 0.013178, Final residual = 5.88747e-05, No Iterations 3
ExecutionTime = 276.89 s  ClockTime = 277 s

Time = 37

DILUPBiCG:  Solving for Ux, Initial residual = 0.0215289, Final residual = 0.000519005, No Iterations 2
DILUPBiCG:  Solving for Uy, Initial residual = 0.00519454, Final residual = 0.0001141, No Iterations 2
DILUPBiCG:  Solving for Uz, Initial residual = 0.0370028, Final residual = 0.0017808, No Iterations 2
GAMG:  Solving for p, Initial residual = 0.293472, Final residual = 0.0215917, No Iterations 2
time step continuity errors : sum local = 0.000100438, global = 1.0131e-05, cumulative = -0.00020062
DILUPBiCG:  Solving for epsilon, Initial residual = 0.0137847, Final residual = 6.69906e-05, No Iterations 3
DILUPBiCG:  Solving for k, Initial residual = 0.0132372, Final residual = 6.11495e-05, No Iterations 3
ExecutionTime = 284.34 s  ClockTime = 285 s

Time = 38

DILUPBiCG:  Solving for Ux, Initial residual = 0.0257256, Final residual = 0.000498338, No Iterations 2
DILUPBiCG:  Solving for Uy, Initial residual = 0.00603488, Final residual = 0.000180361, No Iterations 2
DILUPBiCG:  Solving for Uz, Initial residual = 0.0347354, Final residual = 0.00289321, No Iterations 2
GAMG:  Solving for p, Initial residual = 0.215932, Final residual = 0.019035, No Iterations 2
time step continuity errors : sum local = 0.000115985, global = 2.48362e-05, cumulative = -0.000175784
DILUPBiCG:  Solving for epsilon, Initial residual = 0.0150532, Final residual = 7.19773e-05, No Iterations 3
DILUPBiCG:  Solving for k, Initial residual = 0.0133021, Final residual = 9.4261e-05, No Iterations 3
ExecutionTime = 291.89 s  ClockTime = 292 s

Time = 39

DILUPBiCG:  Solving for Ux, Initial residual = 0.0248907, Final residual = 0.000892948, No Iterations 3
DILUPBiCG:  Solving for Uy, Initial residual = 0.00556167, Final residual = 0.000196168, No Iterations 2
DILUPBiCG:  Solving for Uz, Initial residual = 0.0309578, Final residual = 0.000465638, No Iterations 3
GAMG:  Solving for p, Initial residual = 0.238443, Final residual = 0.0156909, No Iterations 3
time step continuity errors : sum local = 8.25398e-05, global = -2.8423e-05, cumulative = -0.000204207
DILUPBiCG:  Solving for epsilon, Initial residual = 0.0159711, Final residual = 0.000889983, No Iterations 2
DILUPBiCG:  Solving for k, Initial residual = 0.0133512, Final residual = 0.00079655, No Iterations 3
ExecutionTime = 299.73 s  ClockTime = 300 s

Time = 40

DILUPBiCG:  Solving for Ux, Initial residual = 0.0196927, Final residual = 0.00127066, No Iterations 3
DILUPBiCG:  Solving for Uy, Initial residual = 0.00428783, Final residual = 2.59455e-05, No Iterations 3
DILUPBiCG:  Solving for Uz, Initial residual = 0.0258148, Final residual = 0.000291224, No Iterations 3
GAMG:  Solving for p, Initial residual = 0.315656, Final residual = 0.0197387, No Iterations 3
time step continuity errors : sum local = 7.21911e-05, global = -2.61281e-05, cumulative = -0.000230335
DILUPBiCG:  Solving for epsilon, Initial residual = 0.0164631, Final residual = 0.000430564, No Iterations 2
DILUPBiCG:  Solving for k, Initial residual = 0.0134008, Final residual = 0.00027375, No Iterations 3
ExecutionTime = 307.89 s  ClockTime = 308 s

Time = 41

DILUPBiCG:  Solving for Ux, Initial residual = 0.0155385, Final residual = 0.00148823, No Iterations 2
DILUPBiCG:  Solving for Uy, Initial residual = 0.00450195, Final residual = 0.000127686, No Iterations 2
DILUPBiCG:  Solving for Uz, Initial residual = 0.0274995, Final residual = 0.00104657, No Iterations 2
GAMG:  Solving for p, Initial residual = 0.190123, Final residual = 0.0132908, No Iterations 2
time step continuity errors : sum local = 7.61564e-05, global = -2.28073e-05, cumulative = -0.000253142
DILUPBiCG:  Solving for epsilon, Initial residual = 0.016118, Final residual = 0.000387783, No Iterations 2
DILUPBiCG:  Solving for k, Initial residual = 0.013366, Final residual = 0.000242514, No Iterations 3
ExecutionTime = 315.19 s  ClockTime = 316 s

Time = 42

DILUPBiCG:  Solving for Ux, Initial residual = 0.0158059, Final residual = 0.000380201, No Iterations 3
DILUPBiCG:  Solving for Uy, Initial residual = 0.00466489, Final residual = 9.86267e-05, No Iterations 2
DILUPBiCG:  Solving for Uz, Initial residual = 0.0289524, Final residual = 0.0027305, No Iterations 2
GAMG:  Solving for p, Initial residual = 0.173852, Final residual = 0.0145306, No Iterations 2
time step continuity errors : sum local = 8.73178e-05, global = -2.25048e-05, cumulative = -0.000275647
DILUPBiCG:  Solving for epsilon, Initial residual = 0.0158412, Final residual = 0.000360243, No Iterations 2
DILUPBiCG:  Solving for k, Initial residual = 0.01335, Final residual = 0.00114601, No Iterations 2
ExecutionTime = 322.57 s  ClockTime = 323 s

Time = 43

DILUPBiCG:  Solving for Ux, Initial residual = 0.0159913, Final residual = 0.000120781, No Iterations 4
DILUPBiCG:  Solving for Uy, Initial residual = 0.00413354, Final residual = 0.000263729, No Iterations 2
DILUPBiCG:  Solving for Uz, Initial residual = 0.0282092, Final residual = 0.00252836, No Iterations 2
GAMG:  Solving for p, Initial residual = 0.18624, Final residual = 0.0118233, No Iterations 3
time step continuity errors : sum local = 6.39395e-05, global = 2.25994e-05, cumulative = -0.000253047
DILUPBiCG:  Solving for epsilon, Initial residual = 0.0155243, Final residual = 0.000341763, No Iterations 2
DILUPBiCG:  Solving for k, Initial residual = 0.0133231, Final residual = 0.000190783, No Iterations 3
ExecutionTime = 330.49 s  ClockTime = 331 s

Time = 44

DILUPBiCG:  Solving for Ux, Initial residual = 0.0154739, Final residual = 0.000404427, No Iterations 2
DILUPBiCG:  Solving for Uy, Initial residual = 0.00346384, Final residual = 5.04007e-05, No Iterations 3
DILUPBiCG:  Solving for Uz, Initial residual = 0.0242412, Final residual = 0.000207385, No Iterations 3
GAMG:  Solving for p, Initial residual = 0.231162, Final residual = 0.0125758, No Iterations 3
time step continuity errors : sum local = 5.0601e-05, global = 1.86803e-05, cumulative = -0.000234367
DILUPBiCG:  Solving for epsilon, Initial residual = 0.015513, Final residual = 0.0003345, No Iterations 2
DILUPBiCG:  Solving for k, Initial residual = 0.0133491, Final residual = 0.00123312, No Iterations 2
ExecutionTime = 338.25 s  ClockTime = 339 s

Time = 45

DILUPBiCG:  Solving for Ux, Initial residual = 0.0165821, Final residual = 0.000378427, No Iterations 2
DILUPBiCG:  Solving for Uy, Initial residual = 0.00359745, Final residual = 3.04057e-05, No Iterations 3
DILUPBiCG:  Solving for Uz, Initial residual = 0.0210037, Final residual = 0.000185507, No Iterations 3
GAMG:  Solving for p, Initial residual = 0.247088, Final residual = 0.0131694, No Iterations 2
time step continuity errors : sum local = 4.70222e-05, global = 6.45238e-06, cumulative = -0.000227915
DILUPBiCG:  Solving for epsilon, Initial residual = 0.0152884, Final residual = 0.000320863, No Iterations 2
DILUPBiCG:  Solving for k, Initial residual = 0.0133389, Final residual = 0.000162125, No Iterations 3
ExecutionTime = 345.85 s  ClockTime = 346 s

Time = 46

DILUPBiCG:  Solving for Ux, Initial residual = 0.0167497, Final residual = 0.00133406, No Iterations 2
DILUPBiCG:  Solving for Uy, Initial residual = 0.00382027, Final residual = 0.000153375, No Iterations 2
DILUPBiCG:  Solving for Uz, Initial residual = 0.0206782, Final residual = 0.000170694, No Iterations 3
GAMG:  Solving for p, Initial residual = 0.224942, Final residual = 0.0147177, No Iterations 2
time step continuity errors : sum local = 5.51914e-05, global = 1.12451e-05, cumulative = -0.00021667
DILUPBiCG:  Solving for epsilon, Initial residual = 0.0150409, Final residual = 0.00031022, No Iterations 2
DILUPBiCG:  Solving for k, Initial residual = 0.0133509, Final residual = 0.00119823, No Iterations 2
ExecutionTime = 353.27 s  ClockTime = 354 s

Time = 47

DILUPBiCG:  Solving for Ux, Initial residual = 0.0152103, Final residual = 0.000502346, No Iterations 3
DILUPBiCG:  Solving for Uy, Initial residual = 0.00357207, Final residual = 6.73522e-05, No Iterations 2
DILUPBiCG:  Solving for Uz, Initial residual = 0.0205805, Final residual = 0.00131137, No Iterations 2
GAMG:  Solving for p, Initial residual = 0.254884, Final residual = 0.0126236, No Iterations 3
time step continuity errors : sum local = 3.99517e-05, global = -1.47788e-05, cumulative = -0.000231448
DILUPBiCG:  Solving for epsilon, Initial residual = 0.0144185, Final residual = 0.000289005, No Iterations 2
DILUPBiCG:  Solving for k, Initial residual = 0.0133069, Final residual = 0.000157078, No Iterations 3
ExecutionTime = 360.93 s  ClockTime = 361 s

Time = 48

DILUPBiCG:  Solving for Ux, Initial residual = 0.0128003, Final residual = 0.000193141, No Iterations 3
DILUPBiCG:  Solving for Uy, Initial residual = 0.00316994, Final residual = 6.02361e-05, No Iterations 2
DILUPBiCG:  Solving for Uz, Initial residual = 0.0211466, Final residual = 0.000885232, No Iterations 2
GAMG:  Solving for p, Initial residual = 0.192073, Final residual = 0.0145195, No Iterations 2
time step continuity errors : sum local = 5.74074e-05, global = 1.78796e-05, cumulative = -0.000213569
DILUPBiCG:  Solving for epsilon, Initial residual = 0.0138277, Final residual = 0.00027147, No Iterations 2
DILUPBiCG:  Solving for k, Initial residual = 0.0132891, Final residual = 0.0010102, No Iterations 2
ExecutionTime = 368.39 s  ClockTime = 369 s

Time = 49

DILUPBiCG:  Solving for Ux, Initial residual = 0.0128059, Final residual = 0.000184761, No Iterations 3
DILUPBiCG:  Solving for Uy, Initial residual = 0.00319567, Final residual = 6.39685e-05, No Iterations 2
DILUPBiCG:  Solving for Uz, Initial residual = 0.0217419, Final residual = 0.00134922, No Iterations 2
GAMG:  Solving for p, Initial residual = 0.151534, Final residual = 0.00649905, No Iterations 2
time step continuity errors : sum local = 3.10031e-05, global = -3.97442e-07, cumulative = -0.000213966
DILUPBiCG:  Solving for epsilon, Initial residual = 0.0131489, Final residual = 0.000251753, No Iterations 2
DILUPBiCG:  Solving for k, Initial residual = 0.0132474, Final residual = 0.000160086, No Iterations 3
ExecutionTime = 375.83 s  ClockTime = 376 s

Time = 50

DILUPBiCG:  Solving for Ux, Initial residual = 0.0132786, Final residual = 0.000373564, No Iterations 3
DILUPBiCG:  Solving for Uy, Initial residual = 0.00319246, Final residual = 8.05237e-05, No Iterations 2
DILUPBiCG:  Solving for Uz, Initial residual = 0.0209968, Final residual = 0.000178694, No Iterations 3
GAMG:  Solving for p, Initial residual = 0.144007, Final residual = 0.00763907, No Iterations 2
time step continuity errors : sum local = 3.665e-05, global = -5.72672e-06, cumulative = -0.000219693
DILUPBiCG:  Solving for epsilon, Initial residual = 0.0126883, Final residual = 0.000238792, No Iterations 2
DILUPBiCG:  Solving for k, Initial residual = 0.0132474, Final residual = 0.000908386, No Iterations 2
ExecutionTime = 383.52 s  ClockTime = 384 s

Time = 51

DILUPBiCG:  Solving for Ux, Initial residual = 0.0129707, Final residual = 0.000244727, No Iterations 3
DILUPBiCG:  Solving for Uy, Initial residual = 0.00293268, Final residual = 0.000101917, No Iterations 2
DILUPBiCG:  Solving for Uz, Initial residual = 0.0186685, Final residual = 0.000206053, No Iterations 3
GAMG:  Solving for p, Initial residual = 0.158061, Final residual = 0.011576, No Iterations 2
time step continuity errors : sum local = 4.88586e-05, global = -1.66446e-05, cumulative = -0.000236338
DILUPBiCG:  Solving for epsilon, Initial residual = 0.0121863, Final residual = 0.000237492, No Iterations 2
DILUPBiCG:  Solving for k, Initial residual = 0.0132205, Final residual = 0.000155831, No Iterations 3
ExecutionTime = 391.19 s  ClockTime = 392 s

Time = 52

DILUPBiCG:  Solving for Ux, Initial residual = 0.0126748, Final residual = 0.000160033, No Iterations 3
DILUPBiCG:  Solving for Uy, Initial residual = 0.00275396, Final residual = 0.000214955, No Iterations 2
DILUPBiCG:  Solving for Uz, Initial residual = 0.0170124, Final residual = 0.000746038, No Iterations 2
GAMG:  Solving for p, Initial residual = 0.189613, Final residual = 0.0107803, No Iterations 2
time step continuity errors : sum local = 3.67774e-05, global = -6.82364e-06, cumulative = -0.000243161
DILUPBiCG:  Solving for epsilon, Initial residual = 0.0118401, Final residual = 0.000449675, No Iterations 3
DILUPBiCG:  Solving for k, Initial residual = 0.0132379, Final residual = 0.000889494, No Iterations 2
ExecutionTime = 398.74 s  ClockTime = 399 s

Time = 53

DILUPBiCG:  Solving for Ux, Initial residual = 0.0126529, Final residual = 0.000166449, No Iterations 3
DILUPBiCG:  Solving for Uy, Initial residual = 0.00290944, Final residual = 9.87672e-05, No Iterations 2
DILUPBiCG:  Solving for Uz, Initial residual = 0.0174375, Final residual = 0.000485088, No Iterations 2
GAMG:  Solving for p, Initial residual = 0.207268, Final residual = 0.00748897, No Iterations 2
time step continuity errors : sum local = 2.21887e-05, global = -1.39213e-06, cumulative = -0.000244553
DILUPBiCG:  Solving for epsilon, Initial residual = 0.0115379, Final residual = 0.000155974, No Iterations 3
DILUPBiCG:  Solving for k, Initial residual = 0.0132279, Final residual = 0.000150762, No Iterations 3
ExecutionTime = 406.35 s  ClockTime = 407 s

Time = 54

DILUPBiCG:  Solving for Ux, Initial residual = 0.0123323, Final residual = 0.00012746, No Iterations 3
DILUPBiCG:  Solving for Uy, Initial residual = 0.00293736, Final residual = 6.93879e-05, No Iterations 2
DILUPBiCG:  Solving for Uz, Initial residual = 0.0181212, Final residual = 0.000462336, No Iterations 2
GAMG:  Solving for p, Initial residual = 0.194778, Final residual = 0.0077028, No Iterations 2
time step continuity errors : sum local = 2.30101e-05, global = -6.01289e-06, cumulative = -0.000250566
DILUPBiCG:  Solving for epsilon, Initial residual = 0.0111951, Final residual = 0.000414563, No Iterations 2
DILUPBiCG:  Solving for k, Initial residual = 0.013242, Final residual = 0.0008643, No Iterations 2
ExecutionTime = 413.72 s  ClockTime = 414 s

Time = 55

DILUPBiCG:  Solving for Ux, Initial residual = 0.0117804, Final residual = 0.000111977, No Iterations 3
DILUPBiCG:  Solving for Uy, Initial residual = 0.00277557, Final residual = 5.94349e-05, No Iterations 2
DILUPBiCG:  Solving for Uz, Initial residual = 0.0183233, Final residual = 0.000428973, No Iterations 2
GAMG:  Solving for p, Initial residual = 0.161488, Final residual = 0.00721872, No Iterations 2
time step continuity errors : sum local = 2.49074e-05, global = 1.67607e-06, cumulative = -0.00024889
DILUPBiCG:  Solving for epsilon, Initial residual = 0.0107862, Final residual = 0.00048108, No Iterations 2
DILUPBiCG:  Solving for k, Initial residual = 0.0132287, Final residual = 0.00122368, No Iterations 2
ExecutionTime = 421.09 s  ClockTime = 422 s

Time = 56

DILUPBiCG:  Solving for Ux, Initial residual = 0.0116006, Final residual = 0.00012257, No Iterations 3
DILUPBiCG:  Solving for Uy, Initial residual = 0.00265559, Final residual = 6.38121e-05, No Iterations 2
DILUPBiCG:  Solving for Uz, Initial residual = 0.0175347, Final residual = 0.000410655, No Iterations 2
GAMG:  Solving for p, Initial residual = 0.133803, Final residual = 0.00508437, No Iterations 2
time step continuity errors : sum local = 2.03901e-05, global = -2.03064e-06, cumulative = -0.000250921
DILUPBiCG:  Solving for epsilon, Initial residual = 0.0103758, Final residual = 0.000492128, No Iterations 2
DILUPBiCG:  Solving for k, Initial residual = 0.013204, Final residual = 0.000143229, No Iterations 3
ExecutionTime = 428.59 s  ClockTime = 429 s

Time = 57

DILUPBiCG:  Solving for Ux, Initial residual = 0.0116005, Final residual = 0.000139691, No Iterations 3
DILUPBiCG:  Solving for Uy, Initial residual = 0.00259127, Final residual = 7.53226e-05, No Iterations 2
DILUPBiCG:  Solving for Uz, Initial residual = 0.0166096, Final residual = 0.000389662, No Iterations 2
GAMG:  Solving for p, Initial residual = 0.123856, Final residual = 0.00420005, No Iterations 2
time step continuity errors : sum local = 1.74295e-05, global = 7.28688e-07, cumulative = -0.000250192
DILUPBiCG:  Solving for epsilon, Initial residual = 0.0101126, Final residual = 0.00043414, No Iterations 2
DILUPBiCG:  Solving for k, Initial residual = 0.0132242, Final residual = 0.000709021, No Iterations 2
ExecutionTime = 435.89 s  ClockTime = 436 s

Time = 58

DILUPBiCG:  Solving for Ux, Initial residual = 0.0113977, Final residual = 0.00015863, No Iterations 3
DILUPBiCG:  Solving for Uy, Initial residual = 0.0025052, Final residual = 9.15657e-05, No Iterations 2
DILUPBiCG:  Solving for Uz, Initial residual = 0.0161272, Final residual = 0.000375831, No Iterations 2
GAMG:  Solving for p, Initial residual = 0.120601, Final residual = 0.00460537, No Iterations 2
time step continuity errors : sum local = 1.88388e-05, global = 4.12122e-06, cumulative = -0.000246071
DILUPBiCG:  Solving for epsilon, Initial residual = 0.00975382, Final residual = 0.000401405, No Iterations 2
DILUPBiCG:  Solving for k, Initial residual = 0.0132099, Final residual = 0.000772869, No Iterations 2
ExecutionTime = 443.27 s  ClockTime = 444 s

Time = 59

DILUPBiCG:  Solving for Ux, Initial residual = 0.0111573, Final residual = 0.000184541, No Iterations 3
DILUPBiCG:  Solving for Uy, Initial residual = 0.00241037, Final residual = 0.000118872, No Iterations 2
DILUPBiCG:  Solving for Uz, Initial residual = 0.0156481, Final residual = 0.000374312, No Iterations 2
GAMG:  Solving for p, Initial residual = 0.127624, Final residual = 0.00504968, No Iterations 2
time step continuity errors : sum local = 1.90295e-05, global = 5.12885e-06, cumulative = -0.000240942
DILUPBiCG:  Solving for epsilon, Initial residual = 0.00943147, Final residual = 0.000349054, No Iterations 2
DILUPBiCG:  Solving for k, Initial residual = 0.0131955, Final residual = 0.000765662, No Iterations 2
ExecutionTime = 450.63 s  ClockTime = 451 s

Time = 60

DILUPBiCG:  Solving for Ux, Initial residual = 0.0110376, Final residual = 0.000189811, No Iterations 3
DILUPBiCG:  Solving for Uy, Initial residual = 0.00243375, Final residual = 0.000132668, No Iterations 2
DILUPBiCG:  Solving for Uz, Initial residual = 0.0154484, Final residual = 0.000387935, No Iterations 2
GAMG:  Solving for p, Initial residual = 0.134068, Final residual = 0.00442158, No Iterations 2
time step continuity errors : sum local = 1.54175e-05, global = 2.73345e-06, cumulative = -0.000238209
DILUPBiCG:  Solving for epsilon, Initial residual = 0.00911501, Final residual = 0.00030322, No Iterations 2
DILUPBiCG:  Solving for k, Initial residual = 0.013178, Final residual = 0.000691146, No Iterations 2
ExecutionTime = 457.99 s  ClockTime = 458 s

Time = 61

DILUPBiCG:  Solving for Ux, Initial residual = 0.010905, Final residual = 0.000186194, No Iterations 3
DILUPBiCG:  Solving for Uy, Initial residual = 0.00242192, Final residual = 0.000157106, No Iterations 2
DILUPBiCG:  Solving for Uz, Initial residual = 0.0153197, Final residual = 0.000419035, No Iterations 2
GAMG:  Solving for p, Initial residual = 0.131099, Final residual = 0.00418815, No Iterations 2
time step continuity errors : sum local = 1.44246e-05, global = 7.63442e-07, cumulative = -0.000237445
DILUPBiCG:  Solving for epsilon, Initial residual = 0.00879712, Final residual = 0.000270261, No Iterations 2
DILUPBiCG:  Solving for k, Initial residual = 0.0131583, Final residual = 0.000587827, No Iterations 2
ExecutionTime = 465.25 s  ClockTime = 466 s

Time = 62

DILUPBiCG:  Solving for Ux, Initial residual = 0.0107822, Final residual = 0.000169559, No Iterations 3
DILUPBiCG:  Solving for Uy, Initial residual = 0.00239103, Final residual = 0.000178234, No Iterations 2
DILUPBiCG:  Solving for Uz, Initial residual = 0.0151459, Final residual = 0.000453301, No Iterations 2
GAMG:  Solving for p, Initial residual = 0.126399, Final residual = 0.00500634, No Iterations 2
time step continuity errors : sum local = 1.72992e-05, global = 3.16542e-06, cumulative = -0.00023428
DILUPBiCG:  Solving for epsilon, Initial residual = 0.00847779, Final residual = 0.000246714, No Iterations 2
DILUPBiCG:  Solving for k, Initial residual = 0.0131333, Final residual = 0.00049516, No Iterations 2
ExecutionTime = 472.55 s  ClockTime = 473 s

Time = 63

DILUPBiCG:  Solving for Ux, Initial residual = 0.0107074, Final residual = 0.0010301, No Iterations 2
DILUPBiCG:  Solving for Uy, Initial residual = 0.00233455, Final residual = 0.000187554, No Iterations 2
DILUPBiCG:  Solving for Uz, Initial residual = 0.015081, Final residual = 0.000476144, No Iterations 2
GAMG:  Solving for p, Initial residual = 0.117573, Final residual = 0.00449326, No Iterations 2
time step continuity errors : sum local = 1.62551e-05, global = 1.83157e-06, cumulative = -0.000232448
DILUPBiCG:  Solving for epsilon, Initial residual = 0.00815901, Final residual = 0.000231623, No Iterations 2
DILUPBiCG:  Solving for k, Initial residual = 0.0130989, Final residual = 0.000431189, No Iterations 2
ExecutionTime = 479.65 s  ClockTime = 480 s

Time = 64

DILUPBiCG:  Solving for Ux, Initial residual = 0.0104635, Final residual = 0.000760509, No Iterations 2
DILUPBiCG:  Solving for Uy, Initial residual = 0.00224948, Final residual = 1.42143e-05, No Iterations 3
DILUPBiCG:  Solving for Uz, Initial residual = 0.0146906, Final residual = 0.000545054, No Iterations 2
GAMG:  Solving for p, Initial residual = 0.111277, Final residual = 0.00336348, No Iterations 2
time step continuity errors : sum local = 1.2801e-05, global = 4.21023e-08, cumulative = -0.000232406
DILUPBiCG:  Solving for epsilon, Initial residual = 0.00785186, Final residual = 0.000224307, No Iterations 2
DILUPBiCG:  Solving for k, Initial residual = 0.0130486, Final residual = 0.000387966, No Iterations 2
ExecutionTime = 487.02 s  ClockTime = 488 s

Time = 65

DILUPBiCG:  Solving for Ux, Initial residual = 0.0103481, Final residual = 0.000505306, No Iterations 2
DILUPBiCG:  Solving for Uy, Initial residual = 0.00216478, Final residual = 0.000119118, No Iterations 2
DILUPBiCG:  Solving for Uz, Initial residual = 0.0145583, Final residual = 0.000678485, No Iterations 2
GAMG:  Solving for p, Initial residual = 0.110776, Final residual = 0.00313478, No Iterations 2
time step continuity errors : sum local = 1.20531e-05, global = 1.29554e-06, cumulative = -0.00023111
DILUPBiCG:  Solving for epsilon, Initial residual = 0.00756405, Final residual = 0.000219077, No Iterations 2
DILUPBiCG:  Solving for k, Initial residual = 0.0129901, Final residual = 0.000361705, No Iterations 2
ExecutionTime = 494.1 s  ClockTime = 495 s

Time = 66

DILUPBiCG:  Solving for Ux, Initial residual = 0.0102996, Final residual = 0.000389991, No Iterations 2
DILUPBiCG:  Solving for Uy, Initial residual = 0.00209099, Final residual = 5.72653e-05, No Iterations 2
DILUPBiCG:  Solving for Uz, Initial residual = 0.0145737, Final residual = 0.000792236, No Iterations 2
GAMG:  Solving for p, Initial residual = 0.105133, Final residual = 0.00349452, No Iterations 2
time step continuity errors : sum local = 1.32789e-05, global = -3.88757e-07, cumulative = -0.000231499
DILUPBiCG:  Solving for epsilon, Initial residual = 0.00729152, Final residual = 0.000211421, No Iterations 2
DILUPBiCG:  Solving for k, Initial residual = 0.0129312, Final residual = 0.000345591, No Iterations 2
ExecutionTime = 501.3 s  ClockTime = 502 s

Time = 67

DILUPBiCG:  Solving for Ux, Initial residual = 0.0101888, Final residual = 0.000367854, No Iterations 2
DILUPBiCG:  Solving for Uy, Initial residual = 0.0020363, Final residual = 4.33093e-05, No Iterations 2
DILUPBiCG:  Solving for Uz, Initial residual = 0.0142604, Final residual = 0.000893579, No Iterations 2
GAMG:  Solving for p, Initial residual = 0.103845, Final residual = 0.00332637, No Iterations 2
time step continuity errors : sum local = 1.2168e-05, global = -1.03729e-07, cumulative = -0.000231603
DILUPBiCG:  Solving for epsilon, Initial residual = 0.00703942, Final residual = 0.000202014, No Iterations 2
DILUPBiCG:  Solving for k, Initial residual = 0.0128691, Final residual = 0.000332961, No Iterations 2
ExecutionTime = 508.4 s  ClockTime = 509 s

Time = 68

DILUPBiCG:  Solving for Ux, Initial residual = 0.00990686, Final residual = 0.000468648, No Iterations 2
DILUPBiCG:  Solving for Uy, Initial residual = 0.00201213, Final residual = 4.07138e-05, No Iterations 2
DILUPBiCG:  Solving for Uz, Initial residual = 0.0136211, Final residual = 0.00100953, No Iterations 2
GAMG:  Solving for p, Initial residual = 0.105519, Final residual = 0.00276539, No Iterations 2
time step continuity errors : sum local = 9.6641e-06, global = 6.8755e-07, cumulative = -0.000230915
DILUPBiCG:  Solving for epsilon, Initial residual = 0.00680711, Final residual = 0.000192537, No Iterations 2
DILUPBiCG:  Solving for k, Initial residual = 0.0127972, Final residual = 0.000321278, No Iterations 2
ExecutionTime = 515.58 s  ClockTime = 516 s

Time = 69

DILUPBiCG:  Solving for Ux, Initial residual = 0.0095503, Final residual = 0.00078511, No Iterations 2
DILUPBiCG:  Solving for Uy, Initial residual = 0.00198516, Final residual = 4.27794e-05, No Iterations 2
DILUPBiCG:  Solving for Uz, Initial residual = 0.0131025, Final residual = 0.00119248, No Iterations 2
GAMG:  Solving for p, Initial residual = 0.105224, Final residual = 0.00276852, No Iterations 2
time step continuity errors : sum local = 9.5047e-06, global = -1.25311e-07, cumulative = -0.000231041
DILUPBiCG:  Solving for epsilon, Initial residual = 0.00658277, Final residual = 0.000185307, No Iterations 2
DILUPBiCG:  Solving for k, Initial residual = 0.0127163, Final residual = 0.000309754, No Iterations 2
ExecutionTime = 522.7 s  ClockTime = 523 s

Time = 70

DILUPBiCG:  Solving for Ux, Initial residual = 0.00924615, Final residual = 0.000181222, No Iterations 3
DILUPBiCG:  Solving for Uy, Initial residual = 0.00195044, Final residual = 7.44847e-05, No Iterations 2
DILUPBiCG:  Solving for Uz, Initial residual = 0.0128491, Final residual = 0.000148434, No Iterations 3
GAMG:  Solving for p, Initial residual = 0.10371, Final residual = 0.00301727, No Iterations 2
time step continuity errors : sum local = 1.02882e-05, global = -1.36371e-06, cumulative = -0.000232404
DILUPBiCG:  Solving for epsilon, Initial residual = 0.00636091, Final residual = 0.000180353, No Iterations 2
DILUPBiCG:  Solving for k, Initial residual = 0.0126204, Final residual = 0.000297336, No Iterations 2
ExecutionTime = 530.29 s  ClockTime = 531 s

Time = 71

DILUPBiCG:  Solving for Ux, Initial residual = 0.00920934, Final residual = 0.000180852, No Iterations 3
DILUPBiCG:  Solving for Uy, Initial residual = 0.00190351, Final residual = 0.000119879, No Iterations 2
DILUPBiCG:  Solving for Uz, Initial residual = 0.012714, Final residual = 0.00108906, No Iterations 2
GAMG:  Solving for p, Initial residual = 0.098123, Final residual = 0.00310691, No Iterations 2
time step continuity errors : sum local = 1.05518e-05, global = -2.67536e-06, cumulative = -0.00023508
DILUPBiCG:  Solving for epsilon, Initial residual = 0.00613761, Final residual = 0.000173758, No Iterations 2
DILUPBiCG:  Solving for k, Initial residual = 0.0125157, Final residual = 0.000284129, No Iterations 2
ExecutionTime = 537.6 s  ClockTime = 538 s

Time = 72

DILUPBiCG:  Solving for Ux, Initial residual = 0.00912901, Final residual = 0.000148969, No Iterations 3
DILUPBiCG:  Solving for Uy, Initial residual = 0.0018592, Final residual = 9.55775e-05, No Iterations 2
DILUPBiCG:  Solving for Uz, Initial residual = 0.0122623, Final residual = 0.00105664, No Iterations 2
GAMG:  Solving for p, Initial residual = 0.0924335, Final residual = 0.00295608, No Iterations 2
time step continuity errors : sum local = 1.00274e-05, global = -2.96159e-06, cumulative = -0.000238041
DILUPBiCG:  Solving for epsilon, Initial residual = 0.00592342, Final residual = 0.000170515, No Iterations 2
DILUPBiCG:  Solving for k, Initial residual = 0.0123983, Final residual = 0.000272909, No Iterations 2
ExecutionTime = 544.99 s  ClockTime = 546 s

Time = 73

DILUPBiCG:  Solving for Ux, Initial residual = 0.0089613, Final residual = 0.000123586, No Iterations 3
DILUPBiCG:  Solving for Uy, Initial residual = 0.00180248, Final residual = 0.000104294, No Iterations 2
DILUPBiCG:  Solving for Uz, Initial residual = 0.0116502, Final residual = 0.000166549, No Iterations 3
GAMG:  Solving for p, Initial residual = 0.0888444, Final residual = 0.00267319, No Iterations 2
time step continuity errors : sum local = 9.07904e-06, global = -2.14602e-06, cumulative = -0.000240187
DILUPBiCG:  Solving for epsilon, Initial residual = 0.00571764, Final residual = 0.000170258, No Iterations 2
DILUPBiCG:  Solving for k, Initial residual = 0.0122695, Final residual = 0.000263926, No Iterations 2
ExecutionTime = 552.38 s  ClockTime = 553 s

Time = 74

DILUPBiCG:  Solving for Ux, Initial residual = 0.00871366, Final residual = 0.000117795, No Iterations 3
DILUPBiCG:  Solving for Uy, Initial residual = 0.00173858, Final residual = 0.000125831, No Iterations 2
DILUPBiCG:  Solving for Uz, Initial residual = 0.0110933, Final residual = 0.000157114, No Iterations 3
GAMG:  Solving for p, Initial residual = 0.0852141, Final residual = 0.00232776, No Iterations 2
time step continuity errors : sum local = 7.89355e-06, global = -8.88777e-07, cumulative = -0.000241076
DILUPBiCG:  Solving for epsilon, Initial residual = 0.00552187, Final residual = 0.000172967, No Iterations 2
DILUPBiCG:  Solving for k, Initial residual = 0.0121297, Final residual = 0.00025414, No Iterations 2
ExecutionTime = 559.96 s  ClockTime = 560 s

Time = 75

DILUPBiCG:  Solving for Ux, Initial residual = 0.00843119, Final residual = 0.000106107, No Iterations 3
DILUPBiCG:  Solving for Uy, Initial residual = 0.00168373, Final residual = 0.000131945, No Iterations 2
DILUPBiCG:  Solving for Uz, Initial residual = 0.010737, Final residual = 0.00019674, No Iterations 3
GAMG:  Solving for p, Initial residual = 0.0819966, Final residual = 0.00217669, No Iterations 2
time step continuity errors : sum local = 7.33904e-06, global = -7.8198e-08, cumulative = -0.000241154
DILUPBiCG:  Solving for epsilon, Initial residual = 0.00533583, Final residual = 0.000178918, No Iterations 2
DILUPBiCG:  Solving for k, Initial residual = 0.0119855, Final residual = 0.000245683, No Iterations 2
ExecutionTime = 567.4 s  ClockTime = 568 s

Time = 76

DILUPBiCG:  Solving for Ux, Initial residual = 0.00817278, Final residual = 9.33375e-05, No Iterations 3
DILUPBiCG:  Solving for Uy, Initial residual = 0.00163748, Final residual = 0.000130639, No Iterations 2
DILUPBiCG:  Solving for Uz, Initial residual = 0.0104737, Final residual = 0.000304578, No Iterations 3
GAMG:  Solving for p, Initial residual = 0.0795702, Final residual = 0.00212225, No Iterations 2
time step continuity errors : sum local = 7.06522e-06, global = -2.48686e-07, cumulative = -0.000241403
DILUPBiCG:  Solving for epsilon, Initial residual = 0.00515854, Final residual = 0.000187871, No Iterations 2
DILUPBiCG:  Solving for k, Initial residual = 0.0118343, Final residual = 0.000239549, No Iterations 2
ExecutionTime = 574.9 s  ClockTime = 575 s

Time = 77

DILUPBiCG:  Solving for Ux, Initial residual = 0.00793953, Final residual = 0.000101775, No Iterations 3
DILUPBiCG:  Solving for Uy, Initial residual = 0.00160064, Final residual = 0.000142778, No Iterations 2
DILUPBiCG:  Solving for Uz, Initial residual = 0.0101912, Final residual = 0.000794453, No Iterations 3
GAMG:  Solving for p, Initial residual = 0.0779769, Final residual = 0.0022765, No Iterations 2
time step continuity errors : sum local = 7.44243e-06, global = -8.98479e-07, cumulative = -0.000242302
DILUPBiCG:  Solving for epsilon, Initial residual = 0.00499076, Final residual = 0.000198614, No Iterations 2
DILUPBiCG:  Solving for k, Initial residual = 0.011678, Final residual = 0.000234053, No Iterations 2
ExecutionTime = 582.36 s  ClockTime = 583 s

Time = 78

DILUPBiCG:  Solving for Ux, Initial residual = 0.00773758, Final residual = 0.00065426, No Iterations 2
DILUPBiCG:  Solving for Uy, Initial residual = 0.00157821, Final residual = 1.24723e-05, No Iterations 3
DILUPBiCG:  Solving for Uz, Initial residual = 0.00985542, Final residual = 1.14998e-05, No Iterations 4
GAMG:  Solving for p, Initial residual = 0.0807048, Final residual = 0.00221711, No Iterations 2
time step continuity errors : sum local = 7.04764e-06, global = -2.54274e-07, cumulative = -0.000242556
DILUPBiCG:  Solving for epsilon, Initial residual = 0.00483799, Final residual = 0.000219727, No Iterations 2
DILUPBiCG:  Solving for k, Initial residual = 0.0115151, Final residual = 0.000228095, No Iterations 2
ExecutionTime = 590.1 s  ClockTime = 591 s

Time = 79

DILUPBiCG:  Solving for Ux, Initial residual = 0.00767008, Final residual = 0.000749029, No Iterations 2
DILUPBiCG:  Solving for Uy, Initial residual = 0.00154914, Final residual = 1.25369e-05, No Iterations 3
DILUPBiCG:  Solving for Uz, Initial residual = 0.00976206, Final residual = 1.12526e-05, No Iterations 4
GAMG:  Solving for p, Initial residual = 0.081047, Final residual = 0.00208757, No Iterations 2
time step continuity errors : sum local = 6.47914e-06, global = 3.01849e-07, cumulative = -0.000242254
DILUPBiCG:  Solving for epsilon, Initial residual = 0.00469661, Final residual = 0.000247102, No Iterations 2
DILUPBiCG:  Solving for k, Initial residual = 0.0113475, Final residual = 0.000221195, No Iterations 2
ExecutionTime = 597.72 s  ClockTime = 598 s

Time = 80

DILUPBiCG:  Solving for Ux, Initial residual = 0.00755262, Final residual = 0.000728612, No Iterations 2
DILUPBiCG:  Solving for Uy, Initial residual = 0.00151117, Final residual = 0.000111652, No Iterations 2
DILUPBiCG:  Solving for Uz, Initial residual = 0.00966451, Final residual = 1.09396e-05, No Iterations 4
GAMG:  Solving for p, Initial residual = 0.0778445, Final residual = 0.0021019, No Iterations 2
time step continuity errors : sum local = 6.44449e-06, global = -1.47118e-07, cumulative = -0.000242401
DILUPBiCG:  Solving for epsilon, Initial residual = 0.004565, Final residual = 0.000279806, No Iterations 2
DILUPBiCG:  Solving for k, Initial residual = 0.0111805, Final residual = 0.000212809, No Iterations 2
ExecutionTime = 605.33 s  ClockTime = 606 s

Time = 81

DILUPBiCG:  Solving for Ux, Initial residual = 0.00728998, Final residual = 0.000685879, No Iterations 2
DILUPBiCG:  Solving for Uy, Initial residual = 0.00148257, Final residual = 8.21772e-05, No Iterations 2
DILUPBiCG:  Solving for Uz, Initial residual = 0.00933874, Final residual = 1.03665e-05, No Iterations 4
GAMG:  Solving for p, Initial residual = 0.0759627, Final residual = 0.00204762, No Iterations 2
time step continuity errors : sum local = 6.22977e-06, global = -2.4698e-07, cumulative = -0.000242648
DILUPBiCG:  Solving for epsilon, Initial residual = 0.00445126, Final residual = 0.000352578, No Iterations 2
DILUPBiCG:  Solving for k, Initial residual = 0.0110182, Final residual = 0.000203286, No Iterations 2
ExecutionTime = 612.76 s  ClockTime = 613 s

Time = 82

DILUPBiCG:  Solving for Ux, Initial residual = 0.00700096, Final residual = 0.000652996, No Iterations 2
DILUPBiCG:  Solving for Uy, Initial residual = 0.00145088, Final residual = 7.20761e-05, No Iterations 2
DILUPBiCG:  Solving for Uz, Initial residual = 0.0089563, Final residual = 9.78189e-06, No Iterations 4
GAMG:  Solving for p, Initial residual = 0.0735161, Final residual = 0.00209595, No Iterations 2
time step continuity errors : sum local = 6.37781e-06, global = -3.36668e-07, cumulative = -0.000242985
DILUPBiCG:  Solving for epsilon, Initial residual = 0.00436161, Final residual = 1.26701e-05, No Iterations 3
DILUPBiCG:  Solving for k, Initial residual = 0.0108311, Final residual = 0.000194082, No Iterations 2
ExecutionTime = 620.46 s  ClockTime = 621 s

Time = 83

DILUPBiCG:  Solving for Ux, Initial residual = 0.00677666, Final residual = 0.000528462, No Iterations 2
DILUPBiCG:  Solving for Uy, Initial residual = 0.00140515, Final residual = 7.21852e-05, No Iterations 2
DILUPBiCG:  Solving for Uz, Initial residual = 0.00860513, Final residual = 9.20292e-06, No Iterations 4
GAMG:  Solving for p, Initial residual = 0.0701363, Final residual = 0.00186076, No Iterations 2
time step continuity errors : sum local = 5.71354e-06, global = -5.7065e-07, cumulative = -0.000243555
DILUPBiCG:  Solving for epsilon, Initial residual = 0.00416737, Final residual = 1.28889e-05, No Iterations 3
DILUPBiCG:  Solving for k, Initial residual = 0.010609, Final residual = 0.000185719, No Iterations 2
ExecutionTime = 628 s  ClockTime = 629 s

Time = 84

DILUPBiCG:  Solving for Ux, Initial residual = 0.0066236, Final residual = 0.000419006, No Iterations 2
DILUPBiCG:  Solving for Uy, Initial residual = 0.00136285, Final residual = 7.81018e-05, No Iterations 2
DILUPBiCG:  Solving for Uz, Initial residual = 0.00836747, Final residual = 8.83009e-06, No Iterations 4
GAMG:  Solving for p, Initial residual = 0.0670415, Final residual = 0.00181315, No Iterations 2
time step continuity errors : sum local = 5.57812e-06, global = -4.03702e-08, cumulative = -0.000243596
DILUPBiCG:  Solving for epsilon, Initial residual = 0.00399749, Final residual = 1.2711e-05, No Iterations 3
DILUPBiCG:  Solving for k, Initial residual = 0.0103915, Final residual = 0.000175269, No Iterations 2
ExecutionTime = 635.77 s  ClockTime = 636 s

Time = 85

DILUPBiCG:  Solving for Ux, Initial residual = 0.00646639, Final residual = 0.000349701, No Iterations 2
DILUPBiCG:  Solving for Uy, Initial residual = 0.00133436, Final residual = 7.37117e-05, No Iterations 2
DILUPBiCG:  Solving for Uz, Initial residual = 0.00819128, Final residual = 8.70042e-06, No Iterations 4
GAMG:  Solving for p, Initial residual = 0.0650312, Final residual = 0.00184744, No Iterations 2
time step continuity errors : sum local = 5.64628e-06, global = 4.28477e-07, cumulative = -0.000243167
DILUPBiCG:  Solving for epsilon, Initial residual = 0.00384748, Final residual = 1.24547e-05, No Iterations 3
DILUPBiCG:  Solving for k, Initial residual = 0.0101763, Final residual = 0.000164596, No Iterations 2
ExecutionTime = 643.33 s  ClockTime = 644 s

Time = 86

DILUPBiCG:  Solving for Ux, Initial residual = 0.00631452, Final residual = 0.000305527, No Iterations 2
DILUPBiCG:  Solving for Uy, Initial residual = 0.00131331, Final residual = 6.58791e-05, No Iterations 2
DILUPBiCG:  Solving for Uz, Initial residual = 0.00801876, Final residual = 8.64256e-06, No Iterations 4
GAMG:  Solving for p, Initial residual = 0.0636606, Final residual = 0.0018324, No Iterations 2
time step continuity errors : sum local = 5.55868e-06, global = 6.32696e-07, cumulative = -0.000242535
DILUPBiCG:  Solving for epsilon, Initial residual = 0.00371241, Final residual = 1.22019e-05, No Iterations 3
DILUPBiCG:  Solving for k, Initial residual = 0.00996252, Final residual = 0.000156101, No Iterations 2
ExecutionTime = 651.03 s  ClockTime = 652 s

Time = 87

DILUPBiCG:  Solving for Ux, Initial residual = 0.00620081, Final residual = 0.000265039, No Iterations 2
DILUPBiCG:  Solving for Uy, Initial residual = 0.00129892, Final residual = 6.5429e-05, No Iterations 2
DILUPBiCG:  Solving for Uz, Initial residual = 0.00787282, Final residual = 0.000725127, No Iterations 3
GAMG:  Solving for p, Initial residual = 0.0630334, Final residual = 0.00186971, No Iterations 2
time step continuity errors : sum local = 5.61861e-06, global = 6.21917e-07, cumulative = -0.000241913
DILUPBiCG:  Solving for epsilon, Initial residual = 0.00358955, Final residual = 1.19936e-05, No Iterations 3
DILUPBiCG:  Solving for k, Initial residual = 0.00974972, Final residual = 0.000149857, No Iterations 2
ExecutionTime = 658.37 s  ClockTime = 659 s

Time = 88

DILUPBiCG:  Solving for Ux, Initial residual = 0.00613847, Final residual = 0.00023074, No Iterations 2
DILUPBiCG:  Solving for Uy, Initial residual = 0.00129119, Final residual = 6.55344e-05, No Iterations 2
DILUPBiCG:  Solving for Uz, Initial residual = 0.00776984, Final residual = 8.26872e-06, No Iterations 4
GAMG:  Solving for p, Initial residual = 0.0612691, Final residual = 0.00175799, No Iterations 2
time step continuity errors : sum local = 5.21379e-06, global = 6.38563e-07, cumulative = -0.000241274
DILUPBiCG:  Solving for epsilon, Initial residual = 0.00347571, Final residual = 1.18421e-05, No Iterations 3
DILUPBiCG:  Solving for k, Initial residual = 0.00953692, Final residual = 0.000144898, No Iterations 2
ExecutionTime = 665.96 s  ClockTime = 666 s

Time = 89

DILUPBiCG:  Solving for Ux, Initial residual = 0.00606781, Final residual = 0.000197615, No Iterations 2
DILUPBiCG:  Solving for Uy, Initial residual = 0.00128612, Final residual = 6.08258e-05, No Iterations 2
DILUPBiCG:  Solving for Uz, Initial residual = 0.007653, Final residual = 7.924e-06, No Iterations 4
GAMG:  Solving for p, Initial residual = 0.0596339, Final residual = 0.00163512, No Iterations 2
time step continuity errors : sum local = 4.78859e-06, global = 4.62903e-07, cumulative = -0.000240811
DILUPBiCG:  Solving for epsilon, Initial residual = 0.00336857, Final residual = 1.17342e-05, No Iterations 3
DILUPBiCG:  Solving for k, Initial residual = 0.00932547, Final residual = 0.000141037, No Iterations 2
ExecutionTime = 673.36 s  ClockTime = 674 s

Time = 90

DILUPBiCG:  Solving for Ux, Initial residual = 0.00594237, Final residual = 0.000167061, No Iterations 2
DILUPBiCG:  Solving for Uy, Initial residual = 0.00127627, Final residual = 5.52076e-05, No Iterations 2
DILUPBiCG:  Solving for Uz, Initial residual = 0.00749101, Final residual = 7.66911e-06, No Iterations 4
GAMG:  Solving for p, Initial residual = 0.0580492, Final residual = 0.00169873, No Iterations 2
time step continuity errors : sum local = 4.93434e-06, global = 2.15644e-07, cumulative = -0.000240596
DILUPBiCG:  Solving for epsilon, Initial residual = 0.0032672, Final residual = 1.16766e-05, No Iterations 3
DILUPBiCG:  Solving for k, Initial residual = 0.00911577, Final residual = 0.000138038, No Iterations 2
ExecutionTime = 680.89 s  ClockTime = 681 s

Time = 91

DILUPBiCG:  Solving for Ux, Initial residual = 0.00579826, Final residual = 0.000152567, No Iterations 2
DILUPBiCG:  Solving for Uy, Initial residual = 0.00126327, Final residual = 5.19458e-05, No Iterations 2
DILUPBiCG:  Solving for Uz, Initial residual = 0.00731276, Final residual = 7.42741e-06, No Iterations 4
GAMG:  Solving for p, Initial residual = 0.0569984, Final residual = 0.00169892, No Iterations 2
time step continuity errors : sum local = 4.90617e-06, global = -5.15763e-08, cumulative = -0.000240647
DILUPBiCG:  Solving for epsilon, Initial residual = 0.00317127, Final residual = 0.000266254, No Iterations 2
DILUPBiCG:  Solving for k, Initial residual = 0.00888391, Final residual = 0.000135097, No Iterations 2
ExecutionTime = 688.21 s  ClockTime = 689 s

Time = 92

DILUPBiCG:  Solving for Ux, Initial residual = 0.00566841, Final residual = 0.000183745, No Iterations 2
DILUPBiCG:  Solving for Uy, Initial residual = 0.0012487, Final residual = 5.0315e-05, No Iterations 2
DILUPBiCG:  Solving for Uz, Initial residual = 0.00714286, Final residual = 7.22615e-06, No Iterations 4
GAMG:  Solving for p, Initial residual = 0.0558036, Final residual = 0.00162028, No Iterations 2
time step continuity errors : sum local = 4.65444e-06, global = -3.8143e-07, cumulative = -0.000241029
DILUPBiCG:  Solving for epsilon, Initial residual = 0.0030042, Final residual = 0.000285952, No Iterations 2
DILUPBiCG:  Solving for k, Initial residual = 0.00862939, Final residual = 0.000131954, No Iterations 2
ExecutionTime = 695.63 s  ClockTime = 696 s

Time = 93

DILUPBiCG:  Solving for Ux, Initial residual = 0.00556436, Final residual = 0.000335312, No Iterations 2
DILUPBiCG:  Solving for Uy, Initial residual = 0.00122855, Final residual = 5.01148e-05, No Iterations 2
DILUPBiCG:  Solving for Uz, Initial residual = 0.00697799, Final residual = 7.04899e-06, No Iterations 4
GAMG:  Solving for p, Initial residual = 0.0544405, Final residual = 0.00158118, No Iterations 2
time step continuity errors : sum local = 4.52829e-06, global = -5.18211e-07, cumulative = -0.000241547
DILUPBiCG:  Solving for epsilon, Initial residual = 0.00285682, Final residual = 0.000235327, No Iterations 2
DILUPBiCG:  Solving for k, Initial residual = 0.00839627, Final residual = 0.000129037, No Iterations 2
ExecutionTime = 702.93 s  ClockTime = 703 s

Time = 94

DILUPBiCG:  Solving for Ux, Initial residual = 0.00548121, Final residual = 8.42412e-05, No Iterations 3
DILUPBiCG:  Solving for Uy, Initial residual = 0.00119934, Final residual = 5.41168e-05, No Iterations 2
DILUPBiCG:  Solving for Uz, Initial residual = 0.00680648, Final residual = 0.000415782, No Iterations 2
GAMG:  Solving for p, Initial residual = 0.0534051, Final residual = 0.00144667, No Iterations 2
time step continuity errors : sum local = 4.14441e-06, global = -3.33701e-07, cumulative = -0.00024188
DILUPBiCG:  Solving for epsilon, Initial residual = 0.00274452, Final residual = 0.000184429, No Iterations 2
DILUPBiCG:  Solving for k, Initial residual = 0.00818887, Final residual = 0.000126608, No Iterations 2
ExecutionTime = 710.23 s  ClockTime = 711 s

Time = 95

DILUPBiCG:  Solving for Ux, Initial residual = 0.00536047, Final residual = 6.30655e-05, No Iterations 3
DILUPBiCG:  Solving for Uy, Initial residual = 0.00117139, Final residual = 7.64016e-05, No Iterations 2
DILUPBiCG:  Solving for Uz, Initial residual = 0.00670055, Final residual = 0.000394718, No Iterations 2
GAMG:  Solving for p, Initial residual = 0.0531823, Final residual = 0.00154673, No Iterations 2
time step continuity errors : sum local = 4.42913e-06, global = -1.77582e-07, cumulative = -0.000242058
[...]
GAMG:  Solving for p, Initial residual = 7.99397e-05, Final residual = 4.07197e-06, No Iterations 2
time step continuity errors : sum local = 8.39059e-09, global = -6.82778e-10, cumulative = -0.000227249
DILUPBiCG:  Solving for epsilon, Initial residual = 3.58501e-06, Final residual = 6.67802e-07, No Iterations 1
DILUPBiCG:  Solving for k, Initial residual = 5.81533e-06, Final residual = 7.57432e-07, No Iterations 1
ExecutionTime = 8241.09 s  ClockTime = 8242 s

Time = 1505

DILUPBiCG:  Solving for Ux, Initial residual = 8.96372e-06, Final residual = 4.36235e-07, No Iterations 2
DILUPBiCG:  Solving for Uy, Initial residual = 1.43949e-06, Final residual = 3.46306e-08, No Iterations 2
DILUPBiCG:  Solving for Uz, Initial residual = 1.07134e-05, Final residual = 2.46815e-07, No Iterations 2
GAMG:  Solving for p, Initial residual = 7.85177e-05, Final residual = 4.04749e-06, No Iterations 2
time step continuity errors : sum local = 8.34026e-09, global = -6.8545e-10, cumulative = -0.00022725
DILUPBiCG:  Solving for epsilon, Initial residual = 3.6008e-06, Final residual = 6.72267e-07, No Iterations 1
DILUPBiCG:  Solving for k, Initial residual = 5.8224e-06, Final residual = 7.58242e-07, No Iterations 1
ExecutionTime = 8245.94 s  ClockTime = 8247 s

Time = 1506

DILUPBiCG:  Solving for Ux, Initial residual = 8.91402e-06, Final residual = 3.77028e-07, No Iterations 2
DILUPBiCG:  Solving for Uy, Initial residual = 1.44055e-06, Final residual = 3.95908e-08, No Iterations 2
DILUPBiCG:  Solving for Uz, Initial residual = 1.06861e-05, Final residual = 2.49191e-07, No Iterations 2
GAMG:  Solving for p, Initial residual = 7.61315e-05, Final residual = 3.9077e-06, No Iterations 2
time step continuity errors : sum local = 8.05208e-09, global = -6.60255e-10, cumulative = -0.000227251
DILUPBiCG:  Solving for epsilon, Initial residual = 3.61118e-06, Final residual = 6.86458e-07, No Iterations 1
DILUPBiCG:  Solving for k, Initial residual = 5.82577e-06, Final residual = 7.60524e-07, No Iterations 1
ExecutionTime = 8250.8 s  ClockTime = 8252 s

Time = 1507

DILUPBiCG:  Solving for Ux, Initial residual = 8.90251e-06, Final residual = 4.2501e-07, No Iterations 2
DILUPBiCG:  Solving for Uy, Initial residual = 1.43391e-06, Final residual = 6.48818e-07, No Iterations 1
DILUPBiCG:  Solving for Uz, Initial residual = 1.07017e-05, Final residual = 2.47486e-07, No Iterations 2
GAMG:  Solving for p, Initial residual = 8.00747e-05, Final residual = 4.79833e-06, No Iterations 2
time step continuity errors : sum local = 9.88745e-09, global = -5.3476e-10, cumulative = -0.000227251
DILUPBiCG:  Solving for epsilon, Initial residual = 3.56459e-06, Final residual = 6.85904e-07, No Iterations 1
DILUPBiCG:  Solving for k, Initial residual = 5.75826e-06, Final residual = 7.49334e-07, No Iterations 1
ExecutionTime = 8255.54 s  ClockTime = 8257 s

Time = 1508

DILUPBiCG:  Solving for Ux, Initial residual = 8.59021e-06, Final residual = 3.77648e-07, No Iterations 2
DILUPBiCG:  Solving for Uy, Initial residual = 1.49069e-06, Final residual = 9.6674e-07, No Iterations 1
DILUPBiCG:  Solving for Uz, Initial residual = 1.0399e-05, Final residual = 2.51795e-07, No Iterations 2
GAMG:  Solving for p, Initial residual = 8.09213e-05, Final residual = 5.71584e-06, No Iterations 2
time step continuity errors : sum local = 1.17779e-08, global = -4.73056e-10, cumulative = -0.000227252
DILUPBiCG:  Solving for epsilon, Initial residual = 3.50299e-06, Final residual = 6.9801e-07, No Iterations 1
DILUPBiCG:  Solving for k, Initial residual = 5.67186e-06, Final residual = 7.39961e-07, No Iterations 1
ExecutionTime = 8260.27 s  ClockTime = 8261 s

Time = 1509

DILUPBiCG:  Solving for Ux, Initial residual = 8.13723e-06, Final residual = 4.23314e-07, No Iterations 2
DILUPBiCG:  Solving for Uy, Initial residual = 1.58454e-06, Final residual = 3.8135e-08, No Iterations 2
DILUPBiCG:  Solving for Uz, Initial residual = 1.00088e-05, Final residual = 3.57201e-07, No Iterations 2
GAMG:  Solving for p, Initial residual = 8.52996e-05, Final residual = 5.36052e-06, No Iterations 2
time step continuity errors : sum local = 1.10458e-08, global = -4.51145e-10, cumulative = -0.000227252
DILUPBiCG:  Solving for epsilon, Initial residual = 3.54138e-06, Final residual = 6.95759e-07, No Iterations 1
DILUPBiCG:  Solving for k, Initial residual = 5.71005e-06, Final residual = 7.48673e-07, No Iterations 1
ExecutionTime = 8265.13 s  ClockTime = 8266 s

Time = 1510

DILUPBiCG:  Solving for Ux, Initial residual = 8.32112e-06, Final residual = 3.6962e-07, No Iterations 2
DILUPBiCG:  Solving for Uy, Initial residual = 1.52197e-06, Final residual = 7.60524e-07, No Iterations 1
DILUPBiCG:  Solving for Uz, Initial residual = 1.00745e-05, Final residual = 2.83882e-07, No Iterations 2
GAMG:  Solving for p, Initial residual = 7.46603e-05, Final residual = 4.51811e-06, No Iterations 2
time step continuity errors : sum local = 9.3098e-09, global = -3.89146e-10, cumulative = -0.000227252
DILUPBiCG:  Solving for epsilon, Initial residual = 3.49488e-06, Final residual = 7.00981e-07, No Iterations 1
DILUPBiCG:  Solving for k, Initial residual = 5.64693e-06, Final residual = 7.43209e-07, No Iterations 1
ExecutionTime = 8269.87 s  ClockTime = 8271 s

Time = 1511

DILUPBiCG:  Solving for Ux, Initial residual = 8.4134e-06, Final residual = 4.13356e-07, No Iterations 2
DILUPBiCG:  Solving for Uy, Initial residual = 1.50208e-06, Final residual = 6.88936e-07, No Iterations 1
DILUPBiCG:  Solving for Uz, Initial residual = 1.01125e-05, Final residual = 2.60759e-07, No Iterations 2
GAMG:  Solving for p, Initial residual = 7.10573e-05, Final residual = 4.10418e-06, No Iterations 2
time step continuity errors : sum local = 8.457e-09, global = -3.34603e-10, cumulative = -0.000227253
DILUPBiCG:  Solving for epsilon, Initial residual = 3.46074e-06, Final residual = 6.90961e-07, No Iterations 1
DILUPBiCG:  Solving for k, Initial residual = 5.5973e-06, Final residual = 7.36732e-07, No Iterations 1
ExecutionTime = 8274.61 s  ClockTime = 8276 s

Time = 1512

DILUPBiCG:  Solving for Ux, Initial residual = 8.36028e-06, Final residual = 3.87325e-07, No Iterations 2
DILUPBiCG:  Solving for Uy, Initial residual = 1.51136e-06, Final residual = 9.27049e-07, No Iterations 1
DILUPBiCG:  Solving for Uz, Initial residual = 1.00456e-05, Final residual = 2.43611e-07, No Iterations 2
GAMG:  Solving for p, Initial residual = 7.10042e-05, Final residual = 4.0158e-06, No Iterations 2
time step continuity errors : sum local = 8.27478e-09, global = -3.27638e-10, cumulative = -0.000227253
DILUPBiCG:  Solving for epsilon, Initial residual = 3.40973e-06, Final residual = 6.96535e-07, No Iterations 1
DILUPBiCG:  Solving for k, Initial residual = 5.52831e-06, Final residual = 7.33962e-07, No Iterations 1
ExecutionTime = 8279.35 s  ClockTime = 8280 s

Time = 1513

DILUPBiCG:  Solving for Ux, Initial residual = 8.0936e-06, Final residual = 4.14e-07, No Iterations 2
DILUPBiCG:  Solving for Uy, Initial residual = 1.56058e-06, Final residual = 9.16911e-07, No Iterations 1
DILUPBiCG:  Solving for Uz, Initial residual = 9.78888e-06, Final residual = 2.59613e-07, No Iterations 2
GAMG:  Solving for p, Initial residual = 6.90582e-05, Final residual = 4.23894e-06, No Iterations 2
time step continuity errors : sum local = 8.73469e-09, global = -3.45924e-10, cumulative = -0.000227253
DILUPBiCG:  Solving for epsilon, Initial residual = 3.37152e-06, Final residual = 6.86805e-07, No Iterations 1
DILUPBiCG:  Solving for k, Initial residual = 5.47385e-06, Final residual = 7.2817e-07, No Iterations 1
ExecutionTime = 8284.1 s  ClockTime = 8285 s


SIMPLE solution converged in 1513 iterations

End

Finalising parallel run
/*---------------------------------------------------------------------------*\
| =========                 |                                                 |
| \\      /  F ield         | OpenFOAM: The Open Source CFD Toolbox           |
|  \\    /   O peration     | Version:  2.1.1                                 |
|   \\  /    A nd           | Web:      www.OpenFOAM.org                      |
|    \\/     M anipulation  |                                                 |
\*---------------------------------------------------------------------------*/
Build  : 2.1.1-221db2718bbb
Exec   : reconstructPar -latestTime
Date   : Aug 23 2017
Time   : 15:23:30
Host   : "thubee-workstation"
PID    : 7978
Case   : /home/thubee/OpenFOAM/thubee-2.1.1/run/simpleFoam/case01.01-4.2m-snap
nProcs : 1
sigFpe : Enabling floating point exception trapping (FOAM_SIGFPE).
fileModificationChecking : Monitoring run-time modified files using timeStampMaster
allowSystemOperations : Disallowing user-supplied system call operations

// * * * * * * * * * * * * * * * * * * * * * * * * * * * * * * * * * * * * * //
Create time

Create mesh for time = 0

Time = 1513

Reconstructing FV fields

    Reconstructing volScalarFields

        p
        nut
        k
        epsilon

    Reconstructing volVectorFields

        U

    Reconstructing surfaceScalarFields

        phi

Reconstructing point fields

No point fields

No lagrangian fields

End.

/*---------------------------------------------------------------------------*\
| =========                 |                                                 |
| \\      /  F ield         | OpenFOAM: The Open Source CFD Toolbox           |
|  \\    /   O peration     | Version:  2.1.1                                 |
|   \\  /    A nd           | Web:      www.OpenFOAM.org                      |
|    \\/     M anipulation  |                                                 |
\*---------------------------------------------------------------------------*/
Build  : 2.1.1-221db2718bbb
Exec   : simpleFoam -parallel
Date   : Aug 23 2017
Time   : 15:29:37
Host   : "thubee-workstation"
PID    : 8039
Case   : /home/thubee/OpenFOAM/thubee-2.1.1/run/simpleFoam/case01.01-4.2m-snap
nProcs : 8
Slaves : 
7
(
"thubee-workstation.8040"
"thubee-workstation.8041"
"thubee-workstation.8042"
"thubee-workstation.8043"
"thubee-workstation.8044"
"thubee-workstation.8045"
"thubee-workstation.8046"
)

Pstream initialized with:
    floatTransfer     : 0
    nProcsSimpleSum   : 0
    commsType         : nonBlocking
sigFpe : Enabling floating point exception trapping (FOAM_SIGFPE).
fileModificationChecking : Monitoring run-time modified files using timeStampMaster
allowSystemOperations : Disallowing user-supplied system call operations

// * * * * * * * * * * * * * * * * * * * * * * * * * * * * * * * * * * * * * //
--------------------------------------------------------------------------
MPI_ABORT was invoked on rank 0 in communicator MPI_COMM_WORLD 
with errorcode 1.

NOTE: invoking MPI_ABORT causes Open MPI to kill all MPI processes.
You may or may not see output from other processes, depending on
exactly when Open MPI kills them.
--------------------------------------------------------------------------
/*---------------------------------------------------------------------------*\
| =========                 |                                                 |
| \\      /  F ield         | OpenFOAM: The Open Source CFD Toolbox           |
|  \\    /   O peration     | Version:  2.1.1                                 |
|   \\  /    A nd           | Web:      www.OpenFOAM.org                      |
|    \\/     M anipulation  |                                                 |
\*---------------------------------------------------------------------------*/
Build  : 2.1.1-221db2718bbb
Exec   : simpleFoam -parallel
Date   : Aug 23 2017
Time   : 15:29:53
Host   : "thubee-workstation"
PID    : 8062
Case   : /home/thubee/OpenFOAM/thubee-2.1.1/run/simpleFoam/case01.01-4.2m-snap
nProcs : 8
Slaves : 
7
(
"thubee-workstation.8063"
"thubee-workstation.8064"
"thubee-workstation.8065"
"thubee-workstation.8066"
"thubee-workstation.8067"
"thubee-workstation.8068"
"thubee-workstation.8069"
)

Pstream initialized with:
    floatTransfer     : 0
    nProcsSimpleSum   : 0
    commsType         : nonBlocking
sigFpe : Enabling floating point exception trapping (FOAM_SIGFPE).
fileModificationChecking : Monitoring run-time modified files using timeStampMaster
allowSystemOperations : Disallowing user-supplied system call operations

// * * * * * * * * * * * * * * * * * * * * * * * * * * * * * * * * * * * * * //
--------------------------------------------------------------------------
MPI_ABORT was invoked on rank 0 in communicator MPI_COMM_WORLD 
with errorcode 1.

NOTE: invoking MPI_ABORT causes Open MPI to kill all MPI processes.
You may or may not see output from other processes, depending on
exactly when Open MPI kills them.
--------------------------------------------------------------------------
/*---------------------------------------------------------------------------*\
| =========                 |                                                 |
| \\      /  F ield         | OpenFOAM: The Open Source CFD Toolbox           |
|  \\    /   O peration     | Version:  2.1.1                                 |
|   \\  /    A nd           | Web:      www.OpenFOAM.org                      |
|    \\/     M anipulation  |                                                 |
\*---------------------------------------------------------------------------*/
Build  : 2.1.1-221db2718bbb
Exec   : simpleFoam -parallel
Date   : Aug 23 2017
Time   : 15:30:26
Host   : "thubee-workstation"
PID    : 8096
Case   : /home/thubee/OpenFOAM/thubee-2.1.1/run/simpleFoam/case01.01-4.2m-snap
nProcs : 8
Slaves : 
7
(
"thubee-workstation.8097"
"thubee-workstation.8098"
"thubee-workstation.8099"
"thubee-workstation.8100"
"thubee-workstation.8101"
"thubee-workstation.8102"
"thubee-workstation.8103"
)

Pstream initialized with:
    floatTransfer     : 0
    nProcsSimpleSum   : 0
    commsType         : nonBlocking
sigFpe : Enabling floating point exception trapping (FOAM_SIGFPE).
fileModificationChecking : Monitoring run-time modified files using timeStampMaster
allowSystemOperations : Disallowing user-supplied system call operations

// * * * * * * * * * * * * * * * * * * * * * * * * * * * * * * * * * * * * * //
--------------------------------------------------------------------------
MPI_ABORT was invoked on rank 0 in communicator MPI_COMM_WORLD 
with errorcode 1.

NOTE: invoking MPI_ABORT causes Open MPI to kill all MPI processes.
You may or may not see output from other processes, depending on
exactly when Open MPI kills them.
--------------------------------------------------------------------------
/*---------------------------------------------------------------------------*\
| =========                 |                                                 |
| \\      /  F ield         | OpenFOAM: The Open Source CFD Toolbox           |
|  \\    /   O peration     | Version:  2.1.1                                 |
|   \\  /    A nd           | Web:      www.OpenFOAM.org                      |
|    \\/     M anipulation  |                                                 |
\*---------------------------------------------------------------------------*/
Build  : 2.1.1-221db2718bbb
Exec   : simpleFoam -parallel
Date   : Aug 23 2017
Time   : 15:30:46
Host   : "thubee-workstation"
PID    : 8125
Case   : /home/thubee/OpenFOAM/thubee-2.1.1/run/simpleFoam/case01.01-4.2m-snap
nProcs : 8
Slaves : 
7
(
"thubee-workstation.8126"
"thubee-workstation.8127"
"thubee-workstation.8128"
"thubee-workstation.8129"
"thubee-workstation.8130"
"thubee-workstation.8131"
"thubee-workstation.8132"
)

Pstream initialized with:
    floatTransfer     : 0
    nProcsSimpleSum   : 0
    commsType         : nonBlocking
sigFpe : Enabling floating point exception trapping (FOAM_SIGFPE).
fileModificationChecking : Monitoring run-time modified files using timeStampMaster
allowSystemOperations : Disallowing user-supplied system call operations

// * * * * * * * * * * * * * * * * * * * * * * * * * * * * * * * * * * * * * //
--------------------------------------------------------------------------
MPI_ABORT was invoked on rank 0 in communicator MPI_COMM_WORLD 
with errorcode 1.

NOTE: invoking MPI_ABORT causes Open MPI to kill all MPI processes.
You may or may not see output from other processes, depending on
exactly when Open MPI kills them.
--------------------------------------------------------------------------
/*---------------------------------------------------------------------------*\
| =========                 |                                                 |
| \\      /  F ield         | OpenFOAM: The Open Source CFD Toolbox           |
|  \\    /   O peration     | Version:  2.1.1                                 |
|   \\  /    A nd           | Web:      www.OpenFOAM.org                      |
|    \\/     M anipulation  |                                                 |
\*---------------------------------------------------------------------------*/
Build  : 2.1.1-221db2718bbb
Exec   : simpleFoam -parallel
Date   : Aug 23 2017
Time   : 15:31:09
Host   : "thubee-workstation"
PID    : 8157
Case   : /home/thubee/OpenFOAM/thubee-2.1.1/run/simpleFoam/case01.01-4.2m-snap
nProcs : 8
Slaves : 
7
(
"thubee-workstation.8158"
"thubee-workstation.8159"
"thubee-workstation.8160"
"thubee-workstation.8161"
"thubee-workstation.8162"
"thubee-workstation.8163"
"thubee-workstation.8164"
)

Pstream initialized with:
    floatTransfer     : 0
    nProcsSimpleSum   : 0
    commsType         : nonBlocking
sigFpe : Enabling floating point exception trapping (FOAM_SIGFPE).
fileModificationChecking : Monitoring run-time modified files using timeStampMaster
allowSystemOperations : Disallowing user-supplied system call operations

// * * * * * * * * * * * * * * * * * * * * * * * * * * * * * * * * * * * * * //
--------------------------------------------------------------------------
MPI_ABORT was invoked on rank 0 in communicator MPI_COMM_WORLD 
with errorcode 1.

NOTE: invoking MPI_ABORT causes Open MPI to kill all MPI processes.
You may or may not see output from other processes, depending on
exactly when Open MPI kills them.
--------------------------------------------------------------------------
/*---------------------------------------------------------------------------*\
| =========                 |                                                 |
| \\      /  F ield         | OpenFOAM: The Open Source CFD Toolbox           |
|  \\    /   O peration     | Version:  2.1.1                                 |
|   \\  /    A nd           | Web:      www.OpenFOAM.org                      |
|    \\/     M anipulation  |                                                 |
\*---------------------------------------------------------------------------*/
Build  : 2.1.1-221db2718bbb
Exec   : simpleFoam -parallel
Date   : Aug 23 2017
Time   : 15:36:11
Host   : "thubee-workstation"
PID    : 8255
Case   : /home/thubee/OpenFOAM/thubee-2.1.1/run/simpleFoam/case01.01-4.2m-snap
nProcs : 8
Slaves : 
7
(
"thubee-workstation.8257"
"thubee-workstation.8258"
"thubee-workstation.8259"
"thubee-workstation.8260"
"thubee-workstation.8261"
"thubee-workstation.8262"
"thubee-workstation.8263"
)

Pstream initialized with:
    floatTransfer     : 0
    nProcsSimpleSum   : 0
    commsType         : nonBlocking
sigFpe : Enabling floating point exception trapping (FOAM_SIGFPE).
fileModificationChecking : Monitoring run-time modified files using timeStampMaster
allowSystemOperations : Disallowing user-supplied system call operations

// * * * * * * * * * * * * * * * * * * * * * * * * * * * * * * * * * * * * * //
--------------------------------------------------------------------------
MPI_ABORT was invoked on rank 0 in communicator MPI_COMM_WORLD 
with errorcode 1.

NOTE: invoking MPI_ABORT causes Open MPI to kill all MPI processes.
You may or may not see output from other processes, depending on
exactly when Open MPI kills them.
--------------------------------------------------------------------------
